 .Wgn file Subbasin: 4 STATION NAME:326n966e 5/31/2016 12:00:00 AM ArcSWAT 2012.10_0.14
  LATITUDE =  32.63 LONGITUDE =  96.56
  ELEV [m] =3916.00
  RAIN_YRS =  32.00
 -7.41 -5.02 -0.51  4.62  9.84 13.39 14.68 14.23 10.90  4.79 -2.48 -6.29
-20.08-17.41-12.58 -6.65 -1.44  2.98  4.63  4.14  1.51 -3.83-13.62-18.17
  3.73  3.62  3.71  3.69  3.48  3.40  2.72  3.08  3.35  3.88  3.43  3.68
  5.50  5.55  5.26  3.84  2.64  2.51  2.13  2.26  2.48  4.00  5.50  5.20
  12.4  18.1  31.4  44.8  60.7  88.0  65.3  60.1  66.3  46.0  11.8   7.1
  1.00  1.22  1.78  2.32  3.04  4.28  3.76  3.79  3.58  2.58  1.12  0.72
  4.52  2.92  2.70  2.43  2.35  2.29  2.55  3.14  2.37  2.83  4.28  4.49
  0.17  0.26  0.33  0.41  0.36  0.45  0.33  0.35  0.37  0.33  0.13  0.11
  0.32  0.32  0.36  0.39  0.40  0.43  0.37  0.36  0.40  0.38  0.31  0.26
  7.16  9.81 12.72 15.88 16.91 19.34 14.59 14.25 15.94 14.66  5.63  4.44
  4.76  3.20  4.81  6.23  7.26  9.60  9.19 11.15  8.65  8.04  4.04  2.23
 15.25 18.73 23.03 26.28 27.50 26.52 25.89 23.84 21.01 18.44 16.42 14.27
  0.61  0.62  0.58  0.54  0.51  0.56  0.60  0.60  0.64  0.63  0.58  0.57
  4.57  5.19  5.63  5.09  4.60  4.02  3.38  3.27  3.84  4.19  3.94  4.09
