 .Wgn file Subbasin: 6 STATION NAME:320n975e 5/31/2016 12:00:00 AM ArcSWAT 2012.10_0.14
  LATITUDE =  32.00 LONGITUDE =  97.50
  ELEV [m] =3943.00
  RAIN_YRS =  32.00
 -7.54 -5.37 -1.34  3.15  8.77 13.22 14.40 14.00 10.93  4.79 -3.01 -7.01
-20.77-18.74-13.69 -7.84 -2.20  2.76  4.67  4.31  1.86 -3.75-14.83-20.06
  3.15  3.18  2.98  3.24  3.61  3.45  2.72  2.90  3.08  3.88  3.07  3.16
  5.82  5.86  5.33  4.73  3.45  2.81  2.09  2.31  2.28  4.09  5.66  5.80
  13.2  22.0  37.4  38.6  41.0  52.6  45.2  42.5  46.5  31.9  12.6   8.3
  0.89  1.40  1.98  2.01  2.47  3.23  3.30  3.18  2.95  2.33  1.13  0.81
  2.76  3.05  2.68  2.31  3.14  3.15  3.59  3.92  2.85  3.87  3.77  4.92
  0.22  0.28  0.37  0.40  0.30  0.29  0.27  0.25  0.26  0.24  0.15  0.13
  0.31  0.36  0.38  0.39  0.37  0.39  0.34  0.33  0.39  0.36  0.28  0.28
  8.59 11.28 14.91 15.25 13.81 13.56 11.06 10.91 12.34 11.13  6.13  5.09
  2.19  4.67  6.02  4.38  7.34 11.28 10.40  9.54  7.87  7.12  3.03  3.54
 15.62 19.19 23.58 27.71 29.16 27.77 26.07 23.76 21.59 19.44 16.88 14.62
  0.69  0.71  0.70  0.67  0.60  0.59  0.63  0.63  0.66  0.66  0.69  0.68
  4.06  4.50  4.85  4.27  3.99  3.71  3.30  3.26  3.52  3.66  3.33  3.43
