 .Wgn file Subbasin: 12 STATION NAME:311n972e 5/31/2016 12:00:00 AM ArcSWAT 2012.10_0.14
  LATITUDE =  31.07 LONGITUDE =  97.19
  ELEV [m] =3400.00
  RAIN_YRS =  32.00
 -4.41 -2.56  0.72  4.96  9.88 13.50 14.63 14.18 11.21  5.75 -0.43 -3.77
-16.74-14.67-10.67 -5.54 -1.03  3.45  5.29  5.14  2.79 -2.60-11.03-15.80
  3.19  3.06  2.88  3.05  3.16  3.44  2.71  2.82  3.06  3.41  2.70  3.18
  4.41  4.04  3.83  2.95  2.48  2.48  2.03  2.38  2.38  3.54  4.31  4.55
  10.7  21.5  38.7  39.0  31.6  43.3  39.7  43.2  42.2  32.3  14.7   9.8
  0.87  1.41  2.05  2.27  2.10  3.03  2.93  2.97  2.81  2.88  1.42  1.05
  3.91  2.87  2.59  2.85  3.13  3.66  4.85  4.05  3.63  5.24  4.44  5.82
  0.17  0.29  0.38  0.40  0.29  0.29  0.29  0.29  0.26  0.19  0.14  0.13
  0.30  0.33  0.39  0.37  0.36  0.36  0.35  0.37  0.38  0.36  0.26  0.26
  6.84 10.75 15.22 14.19 11.81 12.19 12.06 13.38 12.63  9.59  5.84  5.16
  2.98  3.85  6.05  6.01  5.04 10.49 11.90  8.99 10.62 11.57  5.09  4.32
 15.71 18.81 22.70 26.69 28.02 25.91 24.26 21.76 20.23 18.97 16.78 14.75
  0.61  0.63  0.65  0.62  0.58  0.61  0.64  0.64  0.67  0.66  0.63  0.61
  4.54  4.86  5.06  4.55  4.05  3.54  3.19  3.08  3.24  3.52  3.65  3.98
