 .Wgn file Subbasin: 27 STATION NAME:226n1003e 5/31/2016 12:00:00 AM ArcSWAT 2012.10_0.14
  LATITUDE =  22.64 LONGITUDE = 100.31
  ELEV [m] =1195.00
  RAIN_YRS =  32.00
 19.88 22.86 26.97 29.04 27.68 25.97 25.40 26.02 25.39 23.20 20.78 18.24
  6.11  7.24 11.09 14.54 16.83 18.67 18.33 17.67 15.87 13.91 10.09  7.16
  3.80  4.24  3.89  3.29  3.95  2.94  3.03  3.10  3.13  3.36  3.70  3.72
  2.97  2.48  2.38  1.86  1.83  1.11  1.10  1.50  2.24  2.81  3.44  3.68
  30.6  30.0  26.0  49.7 202.4 290.6 298.4 287.3 242.5 198.2 105.7  59.6
  2.81  3.32  3.13  4.33 11.22 13.89 11.11 12.87 12.88 11.26  7.62  4.72
  7.53  5.83  7.42  4.38  3.62  3.78  2.97  4.05  4.49  4.20  3.84  6.91
  0.19  0.13  0.10  0.20  0.34  0.64  0.86  0.67  0.44  0.44  0.27  0.25
  0.40  0.38  0.37  0.34  0.45  0.49  0.50  0.49  0.48  0.45  0.43  0.43
 10.41  7.00  5.72  9.00 20.53 28.25 30.34 28.94 25.06 23.16 15.94 14.03
 14.85 13.03 15.39 15.30 36.55 40.07 34.46 52.24 40.53 40.19 25.44 27.03
 13.74 17.45 20.94 20.79 19.61 16.96 15.35 16.52 16.55 13.34 11.62 10.54
  0.78  0.65  0.50  0.53  0.73  0.87  0.90  0.89  0.89  0.89  0.86  0.86
  1.38  1.63  1.86  1.76  1.52  1.35  1.26  1.20  1.16  1.16  1.18  1.21
