 .Wgn file Subbasin: 22 STATION NAME:248n1000e 5/31/2016 12:00:00 AM ArcSWAT 2012.10_0.14
  LATITUDE =  24.82 LONGITUDE = 100.00
  ELEV [m] =2230.00
  RAIN_YRS =  32.00
 14.63 17.23 20.87 23.58 23.95 22.65 22.29 23.38 21.85 19.40 16.70 14.11
  1.14  1.79  5.22  9.15 13.03 16.15 16.22 15.64 14.24 11.42  6.18  3.10
  2.64  3.08  3.38  3.20  3.66  3.11  2.78  2.77  2.99  3.05  2.92  2.59
  3.09  2.55  2.25  1.96  2.32  1.31  1.20  1.41  1.98  2.99  3.37  3.41
  28.6  33.5  36.7  55.4 165.1 277.7 305.3 261.5 253.7 229.6  88.3  41.5
  3.03  3.54  3.63  5.79  9.45 12.15 11.08 10.62 11.14 11.76  7.27  3.64
  6.41  4.37  5.19  9.55  3.31  3.22  3.34  3.48  3.52  2.95  4.35  6.18
  0.17  0.14  0.14  0.19  0.36  0.62  0.89  0.67  0.62  0.36  0.26  0.24
  0.35  0.35  0.33  0.38  0.44  0.49  0.49  0.49  0.48  0.47  0.40  0.38
  8.84  6.84  7.41 10.06 19.09 27.94 30.41 29.22 26.81 23.72 14.31 12.50
 13.09 10.28 12.26 37.82 28.04 35.42 36.63 30.60 38.90 32.13 22.43 15.85
 14.45 18.56 21.52 22.78 20.23 14.60 13.53 15.89 14.14 12.36 12.72 11.56
  0.81  0.72  0.62  0.63  0.75  0.88  0.91  0.90  0.90  0.90  0.87  0.86
  1.97  2.39  2.81  2.76  2.25  1.96  1.85  1.71  1.66  1.64  1.64  1.66
