 .Wgn file Subbasin: 24 STATION NAME:233n1006e 5/31/2016 12:00:00 AM ArcSWAT 2012.10_0.14
  LATITUDE =  23.26 LONGITUDE = 100.63
  ELEV [m] =1240.00
  RAIN_YRS =  32.00
 19.07 22.36 26.61 29.08 28.30 26.52 25.94 26.62 25.68 23.22 20.41 17.60
  4.94  5.41  8.72 12.51 15.72 18.32 18.06 17.34 15.62 13.41  9.31  6.49
  3.71  4.20  3.90  3.10  3.97  3.13  3.04  3.06  3.12  3.41  3.50  3.45
  3.03  2.66  2.53  2.14  2.22  1.29  1.22  1.51  2.03  2.74  3.34  3.69
  23.6  20.6  16.7  27.7 133.0 255.1 304.2 277.1 223.8 145.2  74.0  41.1
  2.52  2.33  2.38  3.37  9.59 12.39 12.28 14.26 14.14 10.29  6.33  3.23
 13.62  5.74  8.28  8.06  5.45  4.27  3.20  3.92  4.32  5.41  5.26  7.41
  0.19  0.14  0.09  0.13  0.33  0.57  0.79  0.62  0.49  0.36  0.24  0.25
  0.37  0.32  0.33  0.32  0.43  0.48  0.49  0.48  0.45  0.45  0.41  0.39
  9.50  6.56  4.66  6.09 17.13 27.31 29.50 27.63 23.50 20.88 13.84 13.38
 20.17  8.43 11.74 17.25 40.92 51.07 36.22 46.66 45.86 42.58 27.68 19.43
 13.66 17.90 21.78 23.08 21.17 18.44 17.44 18.33 17.33 13.99 12.31 10.76
  0.80  0.68  0.54  0.54  0.71  0.86  0.89  0.88  0.88  0.89  0.87  0.87
  1.29  1.57  1.83  1.79  1.46  1.25  1.15  1.06  1.03  1.06  1.10  1.12
