 .Sol file Watershed HRU:120 Subbasin:24 HRU:5 Luse:FRSE Soil: Af63-3c-4263 Slope: 0-9999 5/31/2016 12:00:00 AM ArcSWAT 2012.10_0.14
 Soil Name: Af63-3c-4263
 Soil Hydrologic Group: C
 Maximum rooting depth(m) :  640.00
 Porosity fraction from which anions are excluded: 0.500
 Crack volume potential of soil: 0.500
 Texture 1                : CLAY_LOAM
 Depth                [mm]:      300.00     1000.00
 Bulk Density Moist [g/cc]:        1.20        1.30
 Ave. AW Incl. Rock Frag  :        0.13        0.13
 Ksat. (est.)      [mm/hr]:       14.00        8.86
 Organic Carbon [weight %]:        1.50        0.50
 Clay           [weight %]:       38.00       47.00
 Silt           [weight %]:       25.00       23.00
 Sand           [weight %]:       37.00       29.00
 Rock Fragments   [vol. %]:        0.00        0.00
 Soil Albedo (Moist)      :        0.03        0.19
 Erosion K                :        0.25        0.25
 Salinity (EC, Form 5)    :        0.00        0.00
 Soil pH                  :        0.00        0.00
 Soil CACO3               :        0.00        0.00
                              
