 .Sol file Watershed HRU:206 Subbasin:39 HRU:2 Luse:RFR1 Soil: Lf32-3bc-6651 Slope: 0-9999 5/31/2016 12:00:00 AM ArcSWAT 2012.10_0.14
 Soil Name: Lf32-3bc-6651
 Soil Hydrologic Group: C
 Maximum rooting depth(m) :  850.00
 Porosity fraction from which anions are excluded: 0.500
 Crack volume potential of soil: 0.500
 Texture 1                : CLAY
 Depth                [mm]:      300.00     1000.00
 Bulk Density Moist [g/cc]:        1.30        1.60
 Ave. AW Incl. Rock Frag  :        0.07        0.07
 Ksat. (est.)      [mm/hr]:        9.16        2.27
 Organic Carbon [weight %]:        0.60        0.50
 Clay           [weight %]:       47.00       58.00
 Silt           [weight %]:       22.00       20.00
 Sand           [weight %]:       31.00       22.00
 Rock Fragments   [vol. %]:        0.00        0.00
 Soil Albedo (Moist)      :        0.15        0.19
 Erosion K                :        0.25        0.25
 Salinity (EC, Form 5)    :        0.00        0.00
 Soil pH                  :        0.00        0.00
 Soil CACO3               :        0.00        0.00
                              
