 .Wgn file Subbasin: 32 STATION NAME:217n1022e 5/31/2016 12:00:00 AM ArcSWAT 2012.10_0.14
  LATITUDE =  21.70 LONGITUDE = 102.19
  ELEV [m] = 626.00
  RAIN_YRS =  32.00
 19.03 22.85 28.11 30.19 28.05 26.77 26.37 27.10 27.08 24.94 21.89 18.75
  8.15  9.29 12.66 16.53 18.60 19.98 19.68 19.21 17.64 15.27 11.25  8.08
  5.38  6.10  5.67  4.27  4.39  3.07  3.16  3.28  3.34  3.55  4.21  4.48
  2.78  2.73  3.00  2.13  1.94  1.15  1.18  1.44  2.00  2.59  3.41  3.70
  56.8  45.2  55.0 130.7 391.5 473.0 505.0 477.7 330.8 204.3  99.7  55.7
  3.64  3.35  4.41  7.67 14.74 17.47 16.76 15.99 14.34 11.33  8.42  4.50
  4.58  3.55  4.84  3.45  2.66  4.71  4.25  3.35  3.54  3.66  5.32  5.19
  0.27  0.21  0.17  0.30  0.56  0.61  0.75  0.81  0.40  0.38  0.27  0.27
  0.42  0.41  0.40  0.41  0.48  0.50  0.50  0.50  0.47  0.46  0.42  0.41
 15.66 11.78 11.06 16.34 26.69 29.13 30.88 30.00 25.22 21.47 15.84 14.69
 16.54 10.04 16.18 25.85 37.23 75.47 69.61 46.86 50.19 38.93 35.27 15.29
 10.01 14.22 18.69 18.35 17.26 15.75 15.37 15.91 15.94 13.40 11.43  9.58
  0.86  0.75  0.59  0.64  0.83  0.91  0.93  0.92  0.88  0.88  0.86  0.87
  1.23  1.36  1.54  1.50  1.36  1.26  1.20  1.11  1.16  1.23  1.21  1.19
