 .Wgn file Subbasin: 33 STATION NAME:220n1006e 5/31/2016 12:00:00 AM ArcSWAT 2012.10_0.14
  LATITUDE =  22.01 LONGITUDE = 100.63
  ELEV [m] =1145.00
  RAIN_YRS =  32.00
 20.06 23.30 27.75 29.52 27.54 25.90 25.55 26.06 25.54 23.63 21.48 18.77
  7.68  8.90 12.59 15.83 17.53 19.00 18.73 18.11 16.36 14.31 10.49  7.71
  4.28  4.72  4.46  3.66  4.22  2.87  3.07  3.16  3.18  3.32  3.85  3.86
  2.56  2.32  2.58  1.86  1.76  1.13  1.09  1.47  2.24  2.76  3.38  3.66
  39.9  36.8  37.3  99.7 336.6 359.8 352.9 358.4 298.9 237.1 125.6  58.3
  3.53  3.71  3.43  7.27 15.56 13.95 12.89 14.08 13.08 11.50 10.24  4.70
  8.03  5.22  4.49  4.67  3.58  3.71  3.60  3.42  4.00  3.45  5.64  5.74
  0.21  0.14  0.12  0.28  0.46  0.79  0.86  0.75  0.47  0.39  0.25  0.21
  0.40  0.38  0.36  0.38  0.47  0.49  0.49  0.50  0.48  0.45  0.42  0.42
 11.38  7.97  7.38 12.84 24.41 28.78 30.56 30.13 26.41 23.34 15.31 13.13
 20.48 13.07 11.58 34.30 49.06 58.85 52.63 43.43 48.34 32.20 48.24 23.66
 12.93 16.43 19.65 18.31 17.68 15.66 14.50 15.36 15.90 13.62 12.10 10.65
  0.80  0.66  0.51  0.56  0.78  0.90  0.92  0.91  0.90  0.90  0.86  0.86
  1.35  1.55  1.72  1.58  1.45  1.38  1.28  1.21  1.17  1.17  1.18  1.19
