 .Wgn file Subbasin: 30 STATION NAME:223n1012e 5/31/2016 12:00:00 AM ArcSWAT 2012.10_0.14
  LATITUDE =  22.32 LONGITUDE = 101.25
  ELEV [m] =1423.00
  RAIN_YRS =  32.00
 19.02 22.38 27.40 29.77 28.06 26.30 25.87 26.63 26.16 24.07 21.39 18.22
  7.63  8.56 12.04 15.32 17.55 19.27 18.94 18.46 16.93 14.81 10.91  8.05
  4.61  5.32  5.00  3.76  4.30  3.03  3.21  3.28  3.28  3.43  3.90  3.99
  2.67  2.46  2.59  2.04  1.99  1.20  1.25  1.44  1.99  2.56  3.15  3.52
  43.7  36.6  32.3  64.1 274.4 485.0 535.8 485.5 314.0 185.2  90.1  47.9
  3.28  3.36  2.92  4.85 13.97 17.85 16.60 18.00 14.62 10.93  7.61  3.59
  7.44  5.81  4.56  3.76  4.01  4.02  2.97  3.35  3.15  3.45  5.51  5.60
  0.26  0.18  0.12  0.23  0.40  0.63  0.71  0.77  0.42  0.37  0.28  0.26
  0.40  0.38  0.37  0.38  0.46  0.49  0.50  0.50  0.48  0.45  0.40  0.40
 13.59  9.53  7.63 10.91 22.88 28.75 30.56 29.91 25.44 21.41 14.28 14.41
 17.02 14.04 10.54 14.51 56.43 78.33 54.01 56.86 39.66 29.71 36.66 17.54
 11.80 15.71 19.83 20.02 18.96 16.72 15.59 16.65 16.48 13.69 11.81  9.99
  0.83  0.70  0.54  0.57  0.78  0.90  0.92  0.91  0.88  0.88  0.85  0.86
  1.41  1.62  1.85  1.78  1.51  1.34  1.23  1.14  1.16  1.22  1.25  1.27
