 .Wgn file Subbasin: 43 STATION NAME:211n1025e 5/31/2016 12:00:00 AM ArcSWAT 2012.10_0.14
  LATITUDE =  21.08 LONGITUDE = 102.50
  ELEV [m] = 403.00
  RAIN_YRS =  32.00
 21.80 25.53 30.18 31.79 29.74 28.61 28.07 28.70 29.29 27.36 24.26 21.49
  9.11  9.88 13.39 17.48 19.55 20.65 20.37 19.97 18.54 16.44 12.55  9.27
  5.05  5.61  5.14  3.91  4.09  3.30  3.46  3.45  3.33  3.52  4.09  4.22
  3.12  3.14  3.08  2.29  1.75  1.07  1.05  1.32  1.81  2.38  3.21  3.61
  36.8  27.1  36.2  85.8 274.7 346.9 407.6 379.2 209.9 110.1  54.0  27.5
  2.97  2.62  3.89  5.45 11.95 14.16 16.78 16.98 10.87  7.72  5.74  2.85
  5.79  5.68  7.59  3.59  3.66  3.47  3.82  4.01  3.69  5.19  7.20  6.88
  0.23  0.17  0.15  0.30  0.50  0.57  0.77  0.77  0.36  0.30  0.22  0.17
  0.39  0.37  0.36  0.41  0.48  0.49  0.49  0.48  0.48  0.40  0.36  0.39
 12.09  8.63  8.19 15.13 26.13 28.31 30.31 29.22 23.16 16.88 11.31  9.81
 14.57 12.05 20.69 18.48 41.68 42.32 52.85 59.58 33.17 33.32 28.95 13.91
 12.17 16.01 19.90 19.66 18.51 17.49 16.83 17.22 17.54 15.39 13.52 11.89
  0.81  0.71  0.57  0.63  0.80  0.88  0.90  0.89  0.84  0.82  0.80  0.81
  1.35  1.46  1.62  1.58  1.50  1.50  1.43  1.24  1.24  1.40  1.42  1.39
