 .Wgn file Subbasin: 42 STATION NAME:211n1022e 5/31/2016 12:00:00 AM ArcSWAT 2012.10_0.14
  LATITUDE =  21.08 LONGITUDE = 102.19
  ELEV [m] = 822.00
  RAIN_YRS =  32.00
 21.39 25.14 29.81 31.42 29.32 28.33 27.72 28.21 28.59 26.67 23.65 20.93
  8.82 10.13 13.63 17.43 19.29 20.44 20.13 19.67 18.06 15.88 12.06  8.86
  5.10  5.62  5.13  3.96  4.07  3.23  3.36  3.32  3.24  3.42  4.09  4.27
  2.87  2.76  2.84  2.12  1.76  1.08  1.09  1.39  1.98  2.49  3.18  3.47
  41.2  29.3  41.2  94.2 275.9 292.2 346.0 338.6 210.6 117.3  62.8  33.8
  3.20  2.70  4.07  5.64 12.65 13.48 16.17 15.61 10.99  7.59  6.29  3.27
  5.86  4.94  6.39  2.90  3.86  3.95  4.64  4.26  3.85  4.98  6.80  6.22
  0.21  0.17  0.15  0.28  0.53  0.63  0.82  0.74  0.37  0.29  0.22  0.20
  0.42  0.37  0.37  0.43  0.47  0.49  0.49  0.49  0.48  0.44  0.40  0.36
 12.59  8.63  9.03 15.69 26.28 28.16 30.13 29.44 23.84 18.03 12.38 11.16
 16.24 11.27 17.81 15.74 43.38 42.13 60.65 53.76 34.76 30.83 30.83 15.05
 11.88 15.86 19.71 19.24 18.31 17.48 16.66 16.99 17.37 15.30 13.27 11.57
  0.82  0.70  0.56  0.63  0.81  0.88  0.90  0.90  0.86  0.84  0.82  0.83
  1.28  1.43  1.58  1.51  1.44  1.44  1.36  1.22  1.22  1.34  1.35  1.32
