 .Wgn file Subbasin: 53 STATION NAME:205n1000e 5/31/2016 12:00:00 AM ArcSWAT 2012.10_0.14
  LATITUDE =  20.45 LONGITUDE = 100.00
  ELEV [m] = 455.00
  RAIN_YRS =  32.00
 24.85 28.28 32.75 34.42 30.74 28.62 27.82 28.17 28.54 27.67 25.91 23.65
 11.63 13.32 17.02 20.14 20.77 21.31 20.99 20.59 19.17 17.36 14.16 11.46
  3.86  4.34  4.17  3.45  4.16  2.93  2.86  2.97  3.02  3.08  3.53  3.48
  2.14  2.17  2.46  1.97  1.45  0.94  0.93  1.08  1.53  1.90  2.56  2.82
  29.7  21.6  30.7  84.7 387.4 435.6 464.8 396.4 266.7 165.1  75.6  34.9
  2.73  2.64  3.20  7.03 17.41 15.10 14.19 14.87 11.85  9.75  7.03  4.00
  4.52  5.52  5.53  5.65  3.92  3.08  2.39  3.09  3.42  5.34  5.10  8.08
  0.13  0.10  0.10  0.21  0.47  0.68  0.79  0.75  0.46  0.29  0.14  0.12
  0.38  0.33  0.40  0.41  0.47  0.50  0.50  0.49  0.48  0.45  0.41  0.37
  7.50  5.06  6.53 11.72 25.94 28.84 30.41 29.63 25.44 19.88  9.66  7.16
 10.42  9.79 13.40 35.87 75.51 52.38 38.02 43.30 40.10 44.74 23.76 23.14
 14.97 18.41 21.54 20.04 19.76 18.06 17.01 17.39 18.70 17.63 15.68 14.04
  0.73  0.58  0.44  0.51  0.78  0.88  0.91  0.90  0.87  0.84  0.80  0.78
  1.48  1.67  1.67  1.50  1.39  1.41  1.34  1.26  1.22  1.35  1.46  1.47
