 .Wgn file Subbasin: 54 STATION NAME:205n1019e 5/31/2016 12:00:00 AM ArcSWAT 2012.10_0.14
  LATITUDE =  20.45 LONGITUDE = 101.88
  ELEV [m] =1325.00
  RAIN_YRS =  32.00
 22.88 26.29 30.34 31.50 28.81 27.67 26.86 27.38 28.43 26.89 24.32 22.05
  9.24 10.99 14.81 17.98 19.47 20.42 20.12 19.75 18.07 15.94 12.24  9.15
  4.68  5.04  4.57  3.80  3.83  3.02  3.07  3.28  3.16  3.27  3.89  4.15
  3.03  2.97  2.92  2.03  1.61  1.00  0.96  1.31  2.02  2.52  3.11  3.54
  42.2  31.9  50.0 128.3 372.0 403.0 433.9 416.6 265.9 134.8  60.8  33.1
  3.52  3.13  4.62  7.89 14.45 13.90 14.28 14.93 11.74  7.91  5.79  3.63
  5.82  5.14  5.40  5.00  3.97  3.54  3.86  3.71  3.86  4.63  6.77  8.85
  0.21  0.16  0.15  0.28  0.60  0.56  0.67  0.63  0.38  0.30  0.19  0.20
  0.38  0.36  0.37  0.44  0.48  0.50  0.50  0.50  0.48  0.43  0.40  0.37
 11.09  7.97  9.34 17.22 27.81 28.78 30.81 30.00 25.16 18.78 11.69 10.19
 17.21 13.43 18.02 32.42 53.47 48.57 50.12 44.57 47.56 31.33 28.74 22.96
 12.82 16.14 19.14 18.58 17.80 16.68 15.98 16.10 17.32 15.67 14.01 12.73
  0.79  0.66  0.54  0.63  0.83  0.89  0.92  0.92  0.87  0.84  0.81  0.82
  1.28  1.47  1.67  1.59  1.46  1.49  1.43  1.25  1.21  1.35  1.39  1.34
