 .Wgn file Subbasin: 69 STATION NAME:198n1028e 5/31/2016 12:00:00 AM ArcSWAT 2012.10_0.14
  LATITUDE =  19.83 LONGITUDE = 102.81
  ELEV [m] = 638.00
  RAIN_YRS =  32.00
 24.22 27.17 30.35 31.21 29.16 28.43 27.94 28.08 28.86 27.30 25.07 22.95
 10.59 12.55 16.43 18.55 19.20 19.89 19.48 19.28 18.26 16.31 13.10 10.17
  3.85  3.99  3.99  3.45  3.41  2.95  3.05  3.13  3.02  3.24  3.56  3.70
  2.95  2.96  2.68  1.84  1.42  0.83  0.92  1.08  1.39  2.14  3.11  3.48
  24.2  20.3  39.9  88.4 227.4 233.8 264.2 303.8 218.7 105.5  42.8  17.4
  2.92  2.25  4.08  5.81 11.20 12.32 11.91 12.62 10.62  6.87  3.87  2.23
 10.49  4.72  4.91  3.70  4.95  5.14  3.95  3.60  3.46  5.38  5.52  8.38
  0.13  0.11  0.13  0.31  0.54  0.57  0.63  0.81  0.40  0.24  0.16  0.13
  0.36  0.35  0.36  0.40  0.47  0.48  0.49  0.49  0.47  0.44  0.39  0.30
  6.75  5.47  6.97 13.94 25.88 27.31 29.47 29.50 23.66 16.47  9.41  5.97
 20.64  7.43 12.78 17.74 49.21 49.11 37.11 40.17 29.70 34.06 14.43 12.02
 15.00 17.59 20.12 21.42 20.09 18.76 18.29 17.55 17.62 16.38 15.21 14.26
  0.73  0.62  0.52  0.62  0.80  0.85  0.88  0.89  0.83  0.79  0.76  0.75
  1.49  1.68  1.83  1.74  1.45  1.35  1.29  1.20  1.30  1.50  1.57  1.53
