 .Wgn file Subbasin: 66 STATION NAME:198n1022e 5/31/2016 12:00:00 AM ArcSWAT 2012.10_0.14
  LATITUDE =  19.83 LONGITUDE = 102.19
  ELEV [m] = 503.00
  RAIN_YRS =  32.00
 24.77 27.82 31.23 31.92 29.38 28.47 27.62 27.89 29.19 27.93 25.82 23.66
 10.91 12.66 16.77 19.31 20.00 20.62 20.28 20.07 18.93 16.79 13.10 10.13
  3.99  4.34  4.16  3.63  3.54  2.88  3.01  3.18  3.16  3.27  3.57  3.81
  3.07  3.07  2.78  1.89  1.42  0.85  0.87  1.07  1.58  2.35  3.20  3.54
  29.1  25.2  45.1 113.9 293.2 289.9 340.5 376.8 275.7 146.3  54.0  21.2
  2.96  2.90  4.43  8.52 15.14 12.00 13.65 14.68 11.50  8.09  5.70  2.68
  7.54  6.24  5.17  6.48  7.42  5.18  4.53  4.20  3.68  4.04  9.21  8.23
  0.14  0.15  0.14  0.30  0.58  0.59  0.65  0.71  0.42  0.26  0.16  0.11
  0.36  0.34  0.36  0.41  0.48  0.49  0.50  0.49  0.48  0.45  0.39  0.37
  7.63  6.66  8.09 15.47 26.97 28.47 30.28 30.03 25.66 18.31 10.25  6.41
 18.02 12.51 15.27 46.02 83.78 59.89 47.62 58.48 45.86 34.72 32.67 13.49
 14.43 16.80 19.30 19.65 19.07 17.89 17.16 16.80 17.49 16.15 15.24 14.26
  0.74  0.62  0.51  0.61  0.81  0.87  0.90  0.90  0.85  0.81  0.78  0.77
  1.31  1.51  1.76  1.74  1.53  1.50  1.43  1.25  1.21  1.36  1.42  1.37
