 .Wgn file Subbasin: 79 STATION NAME:183n1025e 5/31/2016 12:00:00 AM ArcSWAT 2012.10_0.14
  LATITUDE =  18.27 LONGITUDE = 102.50
  ELEV [m] = 164.00
  RAIN_YRS =  32.00
 28.31 31.60 35.32 36.35 32.89 31.65 30.70 30.23 30.79 30.36 29.13 27.51
 14.82 17.58 20.76 23.06 23.32 23.36 22.75 22.66 21.76 19.59 16.24 13.66
  4.32  5.03  5.04  4.31  4.20  3.34  3.11  2.83  2.84  2.74  3.09  3.56
  3.29  3.22  2.84  1.83  1.31  0.92  0.80  0.72  1.20  2.27  3.42  3.75
  17.4  20.1  40.9 111.8 350.5 312.6 336.9 365.5 276.6 113.1  23.1   8.8
  2.30  3.27  5.49 10.28 17.04 12.64 12.55 13.19 13.22  7.33  2.97  1.68
  6.66  9.18  8.07  7.03  3.74  3.67  3.98  3.40  3.66  4.47 11.16 11.98
  0.07  0.08  0.13  0.30  0.46  0.31  0.50  0.93  0.49  0.23  0.10  0.05
  0.34  0.31  0.35  0.39  0.47  0.48  0.49  0.50  0.47  0.44  0.33  0.28
  4.13  4.38  6.59 14.00 25.38 25.97 28.69 30.13 26.09 17.16  5.81  2.44
 10.44 19.63 23.78 50.08 53.25 41.93 47.02 41.78 41.80 24.63 21.86 12.09
 16.29 18.29 21.14 20.62 19.87 20.07 19.68 19.01 19.47 18.79 17.47 16.15
  0.64  0.54  0.48  0.56  0.76  0.82  0.86  0.89  0.86  0.82  0.75  0.69
  1.30  1.46  1.48  1.39  1.17  1.09  1.07  1.07  1.06  1.12  1.12  1.17
