 .Wgn file Subbasin: 87 STATION NAME:180n1031e 5/31/2016 12:00:00 AM ArcSWAT 2012.10_0.14
  LATITUDE =  17.95 LONGITUDE = 103.13
  ELEV [m] = 186.00
  RAIN_YRS =  32.00
 28.74 31.81 35.37 36.19 32.74 31.19 30.15 29.51 29.69 29.30 28.60 27.72
 15.49 18.19 21.13 23.57 24.02 24.20 23.71 23.46 22.36 20.06 17.24 14.81
  4.68  5.62  5.39  4.49  4.20  3.18  2.73  2.20  2.25  2.48  3.31  3.93
  3.17  3.41  3.14  2.06  1.53  1.05  0.82  0.64  1.30  2.16  2.94  3.30
  27.1  37.8  72.3 217.8 633.6 605.2 641.3 611.0 440.3 174.0  36.7  11.6
  3.65  4.58  7.74 14.65 21.82 16.82 17.08 17.01 18.07 11.74  4.26  1.94
  6.52  7.65  8.14  4.18  2.33  1.78  2.94  2.74  2.36  4.23  6.14  9.05
  0.08  0.12  0.18  0.39  0.54  0.49  0.69  1.00  0.42  0.22  0.11  0.06
  0.37  0.36  0.36  0.45  0.49  0.48  0.50  0.50  0.48  0.45  0.34  0.31
  5.00  6.81  9.94 19.44 27.50 27.69 29.88 30.69 26.69 17.34  6.09  3.06
 15.30 25.18 37.85 45.67 64.28 45.98 61.72 57.31 47.73 42.55 18.12 10.80
 15.66 16.93 19.26 18.78 18.57 19.43 19.19 18.54 18.87 18.79 17.27 15.91
  0.60  0.53  0.49  0.57  0.76  0.82  0.86  0.89  0.88  0.82  0.71  0.64
  1.86  1.93  1.82  1.63  1.39  1.34  1.33  1.34  1.28  1.51  1.68  1.80
