 .Wgn file Subbasin: 82 STATION NAME:186n1047e 5/31/2016 12:00:00 AM ArcSWAT 2012.10_0.14
  LATITUDE =  18.58 LONGITUDE = 104.69
  ELEV [m] =1135.00
  RAIN_YRS =  32.00
 20.40 23.43 27.70 29.28 27.38 26.98 26.74 26.15 25.95 23.73 21.51 19.37
 10.47 12.15 15.18 18.31 19.94 21.07 20.80 20.56 19.05 16.94 13.84 10.66
  5.64  6.83  6.40  4.95  3.60  2.96  2.72  2.46  2.81  3.33  4.10  4.74
  3.35  3.53  3.51  2.55  1.99  1.06  0.95  1.01  1.75  2.41  3.07  3.50
  27.4  46.6  92.5 257.2 503.3 388.3 408.3 497.8 409.0 241.9  79.3  33.1
  2.33  4.24  7.32 13.20 18.49 16.32 17.66 19.03 19.26 14.49  6.07  2.68
  8.01  5.24  8.55  4.35  2.58  3.41  4.40  3.52  3.73  4.77  4.44  6.00
  0.31  0.34  0.30  0.47  0.51  0.57  0.62  0.79  0.45  0.34  0.32  0.32
  0.37  0.36  0.40  0.46  0.47  0.49  0.49  0.50  0.48  0.45  0.41  0.34
 12.78 13.06 15.09 22.41 27.84 27.81 29.53 30.41 25.38 21.56 15.69 12.97
 13.80 15.10 46.94 57.30 47.19 45.10 70.89 57.07 68.37 65.83 19.05 13.18
 13.24 15.03 18.06 18.47 17.34 17.26 18.03 16.11 16.65 14.51 13.22 12.49
  0.84  0.79  0.73  0.76  0.86  0.88  0.90  0.93  0.91  0.89  0.86  0.85
  2.16  2.15  2.13  1.90  1.84  2.08  2.08  1.79  1.74  2.28  2.50  2.42
