 .Wgn file Subbasin: 81 STATION NAME:183n1038e 5/31/2016 12:00:00 AM ArcSWAT 2012.10_0.14
  LATITUDE =  18.27 LONGITUDE = 103.75
  ELEV [m] = 168.00
  RAIN_YRS =  32.00
 28.90 31.47 34.97 36.33 33.22 31.51 30.69 30.44 31.48 31.11 29.78 28.19
 15.47 17.87 20.76 23.15 23.47 23.69 23.23 22.95 21.96 20.22 17.65 15.16
  4.17  5.19  4.80  4.09  4.04  3.38  3.14  2.87  2.91  2.91  3.25  3.65
  2.94  3.25  3.11  2.07  1.55  1.00  0.83  0.72  1.11  1.92  2.66  3.02
   9.9  17.6  30.5  80.8 308.9 316.6 349.0 357.1 240.6  82.7  15.2   5.9
  1.85  3.70  4.48  8.01 17.17 15.56 17.14 16.29 15.61  8.35  2.36  1.33
  9.16 15.37  8.55  5.80  3.72  3.62  5.75  4.11  4.83  6.89  8.22 10.62
  0.05  0.09  0.12  0.28  0.41  0.38  0.55  0.64  0.40  0.21  0.07  0.03
  0.30  0.27  0.31  0.36  0.46  0.48  0.47  0.48  0.46  0.39  0.31  0.26
  2.50  3.88  5.47 12.00 23.34 25.13 27.06 28.06 22.00 12.00  3.69  1.47
  9.46 29.51 24.51 29.02 53.30 48.30 92.33 56.25 67.71 38.79 10.92  7.56
 17.07 18.85 22.13 22.27 21.15 21.30 21.05 20.19 20.24 19.93 18.43 17.08
  0.60  0.54  0.50  0.57  0.74  0.82  0.85  0.88  0.83  0.75  0.67  0.62
  1.86  1.89  1.82  1.55  1.27  1.15  1.12  1.15  1.31  1.67  1.87  1.94
