 .Wgn file Subbasin: 83 STATION NAME:180n1044e 5/31/2016 12:00:00 AM ArcSWAT 2012.10_0.14
  LATITUDE =  17.95 LONGITUDE = 104.38
  ELEV [m] = 244.00
  RAIN_YRS =  32.00
 28.17 30.92 34.11 35.04 31.74 29.76 28.73 28.24 29.08 28.52 27.54 26.56
 14.10 16.24 19.12 22.10 22.88 23.36 22.89 22.77 21.87 19.98 17.26 14.36
  4.48  5.37  4.81  4.17  3.99  3.23  2.90  2.36  2.41  2.77  3.44  4.05
  2.99  3.27  3.25  2.13  1.53  1.00  0.89  0.69  1.17  2.02  2.72  3.13
   7.7  22.3  36.2 134.5 473.4 577.5 655.8 691.4 405.6 127.6  27.4   6.6
  1.37  3.24  5.22 11.60 20.75 19.81 22.79 22.18 21.04 10.29  3.83  1.57
  9.37  6.67  7.96  5.29  3.40  2.03  3.21  2.47  3.36  5.12  7.86 12.78
  0.04  0.09  0.11  0.31  0.47  0.37  0.53  0.76  0.39  0.27  0.10  0.04
  0.36  0.32  0.33  0.39  0.47  0.48  0.49  0.49  0.48  0.42  0.31  0.23
  2.25  4.31  5.53 13.72 25.34 26.28 28.56 29.72 25.00 15.75  5.25  1.63
  7.76 13.00 24.02 43.07 81.96 63.75 76.73 75.55 61.81 42.85 16.50 10.55
 17.40 19.00 21.53 20.99 19.75 19.45 19.05 17.62 18.95 18.68 17.72 16.67
  0.65  0.60  0.55  0.60  0.77  0.84  0.88  0.91  0.87  0.80  0.72  0.67
  2.44  2.45  2.39  2.01  1.61  1.48  1.42  1.39  1.51  2.01  2.37  2.53
