 .Wgn file Subbasin: 96 STATION NAME:180n1047e 5/31/2016 12:00:00 AM ArcSWAT 2012.10_0.14
  LATITUDE =  17.95 LONGITUDE = 104.69
  ELEV [m] = 640.00
  RAIN_YRS =  32.00
 25.72 28.60 31.85 32.69 29.47 27.74 26.82 26.48 27.39 26.60 25.27 24.07
 12.83 14.67 17.27 20.30 21.50 22.25 21.80 21.77 20.91 19.09 16.32 13.35
  4.71  5.57  5.02  4.27  3.80  3.03  2.66  2.22  2.33  2.76  3.53  4.13
  3.06  3.16  3.07  2.07  1.57  0.96  0.97  0.79  1.21  2.05  2.72  3.16
   8.3  31.4  51.9 196.3 655.1 825.3 898.6 905.6 503.5 153.5  36.4   8.5
  1.38  4.00  6.57 13.60 23.19 23.17 24.83 25.08 23.40 11.71  4.45  1.68
  8.01  5.54  9.04  4.83  2.35  1.38  2.50  2.07  2.63  4.33  6.55 10.54
  0.05  0.10  0.15  0.38  0.48  0.44  0.60  0.92  0.45  0.29  0.12  0.06
  0.29  0.34  0.37  0.41  0.48  0.48  0.50  0.50  0.47  0.43  0.36  0.28
  2.50  5.19  7.78 16.78 26.75 27.31 29.66 30.59 25.50 17.16  6.72  2.44
  7.04 14.44 39.13 56.61 68.80 53.06 80.24 78.68 64.53 38.70 19.55  9.76
 17.15 18.62 20.75 20.19 18.54 17.51 17.15 15.43 17.89 17.68 16.83 16.13
  0.71  0.66  0.61  0.67  0.82  0.88  0.91  0.93  0.88  0.83  0.76  0.73
  2.82  2.74  2.61  2.14  1.74  1.69  1.63  1.55  1.72  2.47  2.92  3.05
