 .Wgn file Subbasin: 108 STATION NAME:164n1019e 5/31/2016 12:00:00 AM ArcSWAT 2012.10_0.14
  LATITUDE =  16.39 LONGITUDE = 101.88
  ELEV [m] = 321.00
  RAIN_YRS =  32.00
 27.35 30.62 33.31 33.48 30.63 29.96 29.22 28.35 27.48 26.78 26.20 25.58
 15.26 18.15 20.87 22.50 22.31 22.17 21.75 21.70 20.96 19.17 16.66 14.51
  4.01  4.37  4.48  3.94  3.41  3.07  2.78  2.49  2.44  2.54  3.09  3.32
  2.86  3.14  2.66  1.60  1.11  0.68  0.68  0.60  1.11  1.88  2.51  2.82
  24.2  38.9  97.8 270.9 482.6 224.6 245.0 319.9 477.3 333.8  84.4  18.4
  2.82  4.68  8.05 17.44 20.50 10.33 11.00 13.04 15.22 14.35  7.16  2.83
  5.25  6.64  4.09  4.08  2.98  3.76  5.23  3.73  2.88  3.00  4.59  7.01
  0.09  0.13  0.18  0.39  0.46  0.52  0.64  0.96  0.61  0.29  0.15  0.06
  0.33  0.36  0.39  0.43  0.48  0.47  0.48  0.49  0.49  0.45  0.40  0.32
  4.88  6.56 10.69 19.19 26.78 25.47 27.19 29.59 28.63 21.94  9.91  3.31
  9.74 24.53 24.83 59.91 54.57 40.95 57.11 48.38 57.37 53.37 28.86 12.82
 16.10 16.66 17.43 16.58 17.82 18.26 17.91 16.86 16.66 17.46 17.27 17.21
  0.63  0.54  0.52  0.63  0.79  0.82  0.84  0.88  0.91  0.86  0.78  0.70
  2.34  2.41  2.34  2.02  1.99  2.38  2.37  2.26  1.68  2.07  2.53  2.71
