 .Wgn file Subbasin: 113 STATION NAME:161n1019e 5/31/2016 12:00:00 AM ArcSWAT 2012.10_0.14
  LATITUDE =  16.08 LONGITUDE = 101.88
  ELEV [m] = 280.00
  RAIN_YRS =  32.00
 28.35 31.50 33.96 34.05 31.33 30.50 29.72 28.83 28.03 27.50 27.02 26.62
 16.55 19.23 21.69 23.23 22.98 22.68 22.20 22.16 21.66 20.18 17.84 15.84
  3.80  4.05  4.19  3.76  3.28  3.07  2.75  2.47  2.38  2.47  3.05  3.25
  2.73  2.97  2.48  1.54  1.10  0.75  0.68  0.59  0.90  1.63  2.31  2.70
  20.4  33.8  90.6 264.6 484.1 228.5 246.4 318.3 488.7 328.5  84.1  17.8
  2.53  4.22  7.83 17.97 20.49 10.32 11.47 12.40 15.58 13.53  6.88  2.95
  5.59  5.89  5.09  4.50  3.22  3.44  5.44  3.13  2.55  2.16  4.06  7.58
  0.08  0.12  0.17  0.39  0.50  0.51  0.60  0.80  0.67  0.28  0.14  0.05
  0.34  0.35  0.40  0.43  0.47  0.47  0.48  0.49  0.49  0.46  0.41  0.33
  4.38  5.59 10.50 18.75 26.81 25.19 26.91 29.44 28.66 22.25  9.88  2.91
  9.32 18.27 35.32 67.00 59.45 34.63 60.76 38.62 48.35 35.00 25.50 12.67
 16.79 17.39 17.87 16.63 18.02 18.69 18.41 17.21 16.91 17.67 17.44 17.51
  0.59  0.52  0.50  0.61  0.77  0.80  0.82  0.86  0.90  0.85  0.75  0.66
  2.86  2.83  2.63  2.22  2.19  2.66  2.65  2.57  1.86  2.36  3.02  3.29
