 .Wgn file Subbasin: 111 STATION NAME:167n1053e 5/31/2016 12:00:00 AM ArcSWAT 2012.10_0.14
  LATITUDE =  16.70 LONGITUDE = 105.31
  ELEV [m] = 165.00
  RAIN_YRS =  32.00
 28.21 31.17 34.35 34.63 31.68 30.63 29.92 29.50 30.41 30.23 28.20 26.50
 16.36 18.33 20.73 23.05 23.53 24.03 23.61 23.50 22.60 20.77 18.53 16.33
  4.44  5.20  5.09  4.54  3.80  3.27  3.01  2.86  3.13  3.20  3.90  4.11
  2.58  2.89  2.95  2.04  1.47  1.01  0.78  0.61  1.20  1.95  2.58  2.76
   9.1  33.7  77.0 191.1 488.6 514.5 573.3 635.1 425.7 165.4  41.6   6.2
  1.26  4.82  8.56 13.63 22.19 16.82 15.83 19.83 18.20  9.85  4.66  1.01
  6.61  8.00  7.16  4.52  4.63  2.61  3.12  4.21  4.39  3.54  7.88  8.40
  0.08  0.11  0.21  0.38  0.55  0.46  0.62  0.89  0.47  0.29  0.15  0.08
  0.28  0.37  0.34  0.43  0.48  0.48  0.49  0.50  0.48  0.42  0.35  0.20
  3.63  5.66  9.97 18.16 26.84 27.00 29.44 30.44 26.22 17.00  7.78  3.13
  5.75 22.66 39.93 41.91102.64 54.81 69.34 79.60 88.17 28.24 27.40  5.27
 15.66 16.80 18.87 19.29 18.84 19.34 19.44 18.30 18.02 17.39 14.87 14.05
  0.70  0.65  0.59  0.67  0.81  0.85  0.88  0.90  0.87  0.80  0.76  0.74
  2.09  2.01  1.83  1.55  1.33  1.39  1.40  1.37  1.28  1.73  2.02  2.15
