 .Wgn file Subbasin: 114 STATION NAME:164n1041e 5/31/2016 12:00:00 AM ArcSWAT 2012.10_0.14
  LATITUDE =  16.39 LONGITUDE = 104.06
  ELEV [m] = 153.00
  RAIN_YRS =  32.00
 29.51 32.50 35.31 35.57 33.01 32.01 31.22 30.18 30.09 29.80 28.80 27.99
 16.69 19.28 22.14 24.23 24.48 24.50 23.90 23.50 22.80 21.07 18.83 16.49
  4.11  4.62  4.67  4.39  3.70  3.30  3.04  2.56  2.67  2.77  3.50  3.62
  2.82  3.38  3.20  2.20  1.57  1.20  0.93  0.66  1.03  1.77  2.50  2.84
   7.9  27.4  76.0 212.5 419.7 299.2 304.9 386.8 377.6 178.8  41.9   7.9
  1.24  6.89 10.30 16.44 22.20 14.77 12.12 14.80 15.98 11.15  3.88  2.00
  6.93 21.81  9.78  5.13  4.70  5.05  5.16  4.48  4.22  5.28  4.67 19.11
  0.06  0.09  0.17  0.35  0.50  0.37  0.52  0.91  0.48  0.27  0.14  0.05
  0.28  0.35  0.33  0.41  0.46  0.49  0.48  0.49  0.48  0.46  0.37  0.27
  2.69  4.25  7.91 16.41 25.25 24.97 27.69 29.91 28.09 19.59  7.59  2.22
  5.07 64.80 63.47 66.73 87.80 69.57 62.82 51.22 56.96 42.15 15.22 18.15
 17.26 18.19 19.30 18.22 18.98 19.71 20.11 19.32 18.72 18.43 16.82 16.80
  0.63  0.56  0.52  0.60  0.73  0.76  0.79  0.85  0.86  0.79  0.71  0.66
  3.64  3.40  2.97  2.41  2.23  2.56  2.55  2.41  1.94  2.69  3.49  3.95
