 .Wgn file Subbasin: 110 STATION NAME:167n1066e 5/31/2016 12:00:00 AM ArcSWAT 2012.10_0.14
  LATITUDE =  16.70 LONGITUDE = 106.56
  ELEV [m] = 572.00
  RAIN_YRS =  32.00
 22.58 26.08 30.47 31.97 30.16 29.90 29.44 28.70 28.13 25.98 23.31 21.12
 15.31 16.29 18.15 20.51 21.55 22.26 21.91 21.74 20.83 19.68 17.91 15.91
  5.25  6.36  6.35  5.02  3.68  3.34  3.11  2.94  2.91  3.42  3.98  4.31
  2.20  2.28  2.60  1.84  1.41  1.15  1.10  0.95  1.42  1.81  2.14  2.34
  43.7  47.3  71.0 192.0 380.2 250.6 245.3 311.3 359.5 286.0 148.7  87.6
  2.42  3.75  5.99 12.02 21.38 15.25 14.22 18.13 20.52 17.76 10.18  4.51
  3.09  5.05  5.90  4.64  4.81  4.24  5.01  5.75  4.58  4.44  5.76  3.74
  0.36  0.28  0.27  0.45  0.58  0.46  0.56  0.61  0.55  0.38  0.36  0.37
  0.40  0.41  0.38  0.43  0.46  0.45  0.46  0.47  0.46  0.46  0.45  0.42
 16.03 13.94 13.16 19.28 25.56 21.56 24.28 26.69 25.28 22.09 19.53 19.44
  6.95 13.82 27.54 51.63 81.56 50.72 54.91 90.20 67.53 57.56 50.09 17.83
 11.16 14.16 17.07 18.18 18.97 19.58 19.50 17.94 17.57 14.34 10.03  8.27
  0.87  0.81  0.73  0.75  0.83  0.82  0.84  0.88  0.90  0.90  0.91  0.91
  2.25  2.09  1.94  1.66  1.65  2.15  2.23  2.03  1.54  2.02  2.49  2.53
