 .Wgn file Subbasin: 126 STATION NAME:158n1050e 5/31/2016 12:00:00 AM ArcSWAT 2012.10_0.14
  LATITUDE =  15.77 LONGITUDE = 105.00
  ELEV [m] = 133.00
  RAIN_YRS =  32.00
 29.81 33.05 35.74 35.57 32.74 31.43 30.57 29.40 29.18 29.04 28.00 27.18
 17.73 19.98 22.73 24.34 24.36 24.38 23.88 23.49 22.80 21.32 19.58 17.67
  4.15  4.49  4.56  4.49  3.75  3.36  2.90  2.28  2.28  2.57  3.59  3.99
  2.30  3.01  3.04  2.06  1.43  1.18  0.81  0.62  1.00  1.58  2.02  2.23
  10.7  30.8  79.2 267.2 532.0 446.7 443.8 529.7 463.8 215.0  61.0   9.2
  2.04  4.32  8.30 17.34 21.35 18.64 14.27 18.14 15.70 11.48  5.64  1.70
  9.85  5.87  6.65  4.04  2.85  3.85  3.77  4.90  3.22  4.25  6.11 11.50
  0.06  0.09  0.17  0.42  0.50  0.47  0.64  1.05  0.64  0.25  0.15  0.06
  0.23  0.35  0.39  0.43  0.47  0.49  0.49  0.50  0.50  0.46  0.39  0.26
  2.50  4.69  9.91 19.41 26.44 26.34 29.00 30.38 28.78 21.50  9.06  2.88
 10.60 17.20 34.99 52.90 58.94 63.84 52.34 78.12 48.81 44.08 26.45 11.53
 17.66 18.47 18.88 17.80 18.69 19.21 19.99 18.96 17.73 17.68 16.18 15.72
  0.65  0.57  0.53  0.62  0.76  0.80  0.83  0.88  0.90  0.84  0.77  0.72
  3.53  3.18  2.80  2.33  2.15  2.42  2.44  2.32  1.81  2.64  3.74  4.18
