 .Wgn file Subbasin: 127 STATION NAME:155n1034e 5/31/2016 12:00:00 AM ArcSWAT 2012.10_0.14
  LATITUDE =  15.46 LONGITUDE = 103.44
  ELEV [m] = 137.00
  RAIN_YRS =  32.00
 30.16 33.07 35.60 35.74 33.53 32.44 31.65 30.54 29.74 28.97 28.60 28.48
 18.56 21.42 24.11 25.55 25.26 24.87 24.30 23.90 23.40 21.51 19.62 17.94
  3.51  3.76  3.92  3.90  3.25  3.09  2.76  2.39  2.07  2.27  3.21  3.45
  3.03  3.50  2.99  1.97  1.39  1.12  0.88  0.69  0.92  1.74  2.34  2.71
  13.3  31.7  85.0 245.8 422.6 276.6 287.2 373.1 432.5 234.2  69.5  14.1
  2.28  4.79  8.85 17.03 18.42 14.00  9.67 13.74 14.58 10.16  6.13  2.47
 12.54  7.33  6.90  4.27  3.26  8.44  2.77  4.80  3.60  2.91  5.70 11.78
  0.07  0.11  0.19  0.40  0.52  0.42  0.55  0.90  0.65  0.31  0.17  0.07
  0.34  0.34  0.38  0.42  0.47  0.48  0.48  0.49  0.50  0.46  0.40  0.27
  3.53  5.38 10.56 18.03 26.25 25.69 27.59 30.03 28.66 22.94 10.31  3.56
 16.84 18.20 41.19 67.93 54.01 92.00 28.52 54.73 52.21 31.55 28.71 17.73
 17.06 17.77 18.29 17.21 18.66 19.23 19.83 19.12 18.56 17.95 16.63 16.34
  0.58  0.51  0.49  0.57  0.71  0.74  0.77  0.83  0.87  0.84  0.74  0.64
  3.44  3.26  2.99  2.58  2.56  2.89  2.90  2.78  2.04  2.44  3.32  3.89
