 .Wgn file Subbasin: 123 STATION NAME:158n1044e 5/31/2016 12:00:00 AM ArcSWAT 2012.10_0.14
  LATITUDE =  15.77 LONGITUDE = 104.38
  ELEV [m] = 116.00
  RAIN_YRS =  32.00
 30.16 33.11 35.84 35.97 33.58 32.36 31.58 30.40 29.93 29.59 28.94 28.26
 17.77 20.23 23.04 25.03 25.10 24.94 24.36 23.87 23.28 21.66 19.87 17.73
  3.82  4.16  4.27  4.22  3.54  3.24  2.84  2.35  2.24  2.47  3.36  3.57
  2.59  3.25  3.09  2.10  1.52  1.21  0.89  0.65  0.95  1.59  2.18  2.45
   9.7  24.6  75.7 237.3 442.9 313.2 314.4 402.8 430.5 219.9  57.4   9.8
  1.81  3.35  9.67 17.60 22.66 13.75 10.98 15.68 16.76 11.53  5.58  2.27
  9.07  5.64 11.07  4.84  4.90  3.87  3.81  4.69  4.00  4.62  6.76 17.65
  0.07  0.09  0.17  0.36  0.49  0.45  0.58  0.79  0.56  0.26  0.14  0.06
  0.26  0.35  0.36  0.41  0.47  0.47  0.48  0.50  0.50  0.45  0.36  0.30
  2.72  4.44  8.97 17.09 25.53 25.38 27.97 29.81 28.50 21.25  8.41  2.63
  8.60 10.93 69.01 65.04 88.47 52.28 48.33 65.75 59.00 46.93 29.43 19.80
 17.52 18.57 19.39 18.24 19.02 19.64 20.46 19.84 18.57 18.14 16.79 16.57
  0.62  0.55  0.51  0.58  0.71  0.75  0.78  0.84  0.86  0.81  0.72  0.67
  3.73  3.40  2.96  2.47  2.31  2.61  2.61  2.50  1.94  2.71  3.81  4.32
