 .Wgn file Subbasin: 138 STATION NAME:148n1050e 5/31/2016 12:00:00 AM ArcSWAT 2012.10_0.14
  LATITUDE =  14.83 LONGITUDE = 105.00
  ELEV [m] = 138.00
  RAIN_YRS =  32.00
 31.13 33.98 36.14 35.57 32.63 31.30 30.54 29.75 29.49 29.47 28.93 28.59
 18.15 20.55 23.22 24.51 24.28 23.98 23.55 23.28 22.91 21.45 19.58 17.80
  3.33  3.51  3.96  4.25  3.50  3.29  2.68  2.41  2.39  2.63  3.35  3.59
  2.63  2.99  2.57  1.57  1.08  0.87  0.69  0.61  0.83  1.62  2.15  2.42
   8.8  33.8  84.1 262.4 458.4 383.3 376.9 437.0 496.6 285.9  97.0  18.2
  1.59  5.04 10.87 18.00 20.04 14.75 10.21 13.91 17.38 10.77  7.53  2.84
  8.72  8.18 12.28  5.31  3.93  4.25  2.87  4.31  4.53  2.77  5.91 10.29
  0.06  0.10  0.20  0.44  0.52  0.60  0.65  0.95  0.89  0.28  0.21  0.09
  0.20  0.34  0.36  0.44  0.47  0.48  0.49  0.50  0.50  0.47  0.39  0.32
  2.38  4.84 10.72 19.78 27.03 27.22 29.47 30.41 29.41 24.38 12.38  4.56
  8.72 29.14 80.37 73.51 70.34 58.62 39.44 53.96 63.73 37.91 35.02 15.77
 18.59 19.12 19.17 18.02 18.97 18.72 19.71 18.79 17.85 17.58 16.72 16.66
  0.61  0.53  0.51  0.61  0.76  0.81  0.84  0.87  0.89  0.85  0.78  0.71
  2.55  2.51  2.38  2.08  2.03  2.23  2.26  2.22  1.66  2.05  2.77  3.04
