 .Wgn file Subbasin: 130 STATION NAME:155n1041e 5/31/2016 12:00:00 AM ArcSWAT 2012.10_0.14
  LATITUDE =  15.46 LONGITUDE = 104.06
  ELEV [m] = 116.00
  RAIN_YRS =  32.00
 30.46 33.26 35.87 35.95 33.76 32.57 31.82 30.73 30.12 29.50 29.01 28.62
 18.29 20.99 23.81 25.54 25.41 25.12 24.55 24.08 23.53 21.77 20.00 18.02
  3.52  3.79  3.98  3.98  3.30  3.08  2.71  2.32  2.13  2.36  3.27  3.46
  2.81  3.41  3.04  2.01  1.43  1.15  0.89  0.66  0.90  1.62  2.22  2.52
  10.4  29.1  79.9 230.4 433.2 303.8 298.8 382.2 418.3 214.5  63.5  10.4
  1.84  3.94  9.63 17.63 19.74 13.48  9.64 13.18 16.31 11.04  6.71  2.34
  9.37  5.95 10.23  5.80  3.83  4.82  3.30  3.53  4.65  4.71 10.57 18.53
  0.05  0.10  0.19  0.37  0.48  0.50  0.56  0.88  0.60  0.29  0.17  0.05
  0.34  0.32  0.34  0.42  0.47  0.47  0.48  0.49  0.49  0.46  0.37  0.31
  2.91  4.97  9.81 17.59 25.97 25.53 27.81 29.97 28.50 22.09  9.22  2.78
 10.60 14.70 60.35 75.86 70.92 60.61 40.50 36.20 64.98 44.97 47.59 21.11
 17.46 18.19 18.88 17.86 18.98 19.52 20.36 19.83 18.89 18.15 16.73 16.44
  0.59  0.52  0.49  0.57  0.70  0.74  0.77  0.82  0.86  0.82  0.72  0.65
  3.53  3.27  2.95  2.54  2.49  2.82  2.84  2.72  2.00  2.51  3.52  4.07
