 .Sol file Watershed HRU:957 Subbasin:146 HRU:4 Luse:RFR2 Soil: Gd29-3a-4499 Slope: 0-9999 5/31/2016 12:00:00 AM ArcSWAT 2012.10_0.14
 Soil Name: Gd29-3a-4499
 Soil Hydrologic Group: C
 Maximum rooting depth(m) : 1000.00
 Porosity fraction from which anions are excluded: 0.500
 Crack volume potential of soil: 0.500
 Texture 1                : CLAY
 Depth                [mm]:      300.00     1000.00
 Bulk Density Moist [g/cc]:        1.10        1.40
 Ave. AW Incl. Rock Frag  :        0.00        0.00
 Ksat. (est.)      [mm/hr]:       21.09        4.57
 Organic Carbon [weight %]:        3.20        1.70
 Clay           [weight %]:       51.00       56.00
 Silt           [weight %]:       31.00       25.00
 Sand           [weight %]:       18.00       18.00
 Rock Fragments   [vol. %]:        0.00        0.00
 Soil Albedo (Moist)      :        0.00        0.02
 Erosion K                :        0.28        0.28
 Salinity (EC, Form 5)    :        0.00        0.00
 Soil pH                  :        0.00        0.00
 Soil CACO3               :        0.00        0.00
                              
