 .Wgn file Subbasin: 159 STATION NAME:145n1022e 5/31/2016 12:00:00 AM ArcSWAT 2012.10_0.14
  LATITUDE =  14.52 LONGITUDE = 102.19
  ELEV [m] = 222.00
  RAIN_YRS =  32.00
 29.80 32.82 34.42 33.92 31.47 30.70 30.04 29.31 28.56 27.79 27.23 27.22
 17.00 19.65 21.82 23.05 23.17 22.85 22.45 22.39 22.03 20.43 18.19 16.20
  3.73  3.58  3.80  3.87  3.07  2.67  2.40  2.32  2.29  2.66  3.28  3.48
  3.00  2.81  2.03  1.22  0.82  0.64  0.62  0.61  0.85  1.69  2.18  2.61
  19.9  37.1  95.9 244.9 293.5 165.6 185.9 237.5 412.3 314.7  88.2  19.8
  2.80  4.58  7.80 15.80 14.17  8.85  8.85  9.87 14.17 12.67  6.37  2.72
  9.32  6.66  4.96  4.12  3.92  5.77  4.61  4.17  3.26  3.37  5.92  7.86
  0.10  0.12  0.20  0.36  0.51  0.53  0.73  0.79  0.85  0.27  0.20  0.09
  0.32  0.36  0.41  0.44  0.48  0.47  0.47  0.48  0.49  0.48  0.43  0.34
  4.91  6.09 11.75 18.91 26.22 25.25 27.59 28.63 29.16 24.66 13.63  4.78
 16.86 23.63 28.59 48.94 47.57 38.49 36.42 43.57 42.70 44.00 35.85 14.27
 17.20 16.97 17.30 16.48 19.32 19.59 19.58 18.32 17.30 16.92 15.81 16.53
  0.61  0.56  0.58  0.68  0.79  0.81  0.83  0.86  0.90  0.88  0.81  0.70
  1.95  1.90  1.91  1.73  1.86  2.20  2.19  2.13  1.51  1.65  2.15  2.30
