 .Wgn file Subbasin: 157 STATION NAME:151n1069e 5/31/2016 12:00:00 AM ArcSWAT 2012.10_0.14
  LATITUDE =  15.14 LONGITUDE = 106.88
  ELEV [m] = 223.00
  RAIN_YRS =  32.00
 28.50 31.19 33.56 33.48 30.91 28.88 28.10 27.36 28.78 29.25 27.60 26.55
 15.24 16.42 18.30 20.00 20.54 20.58 20.22 20.33 19.74 18.75 17.52 15.81
  3.43  3.34  3.27  3.75  3.75  3.91  3.67  3.50  3.36  3.13  3.60  3.73
  1.91  1.87  1.92  1.19  1.01  1.06  1.19  1.07  1.11  1.36  1.80  2.04
   3.0   9.3  24.8 104.3 215.5 254.0 254.4 315.5 293.8 135.1  45.3   8.2
  0.71  1.79  3.94 10.99 13.73 16.57 14.55 16.41 14.59  8.89  5.54  1.53
 16.40  9.59 11.04  9.01  5.18  4.93  5.46  5.33  4.12  5.27  9.52  9.84
  0.04  0.06  0.11  0.30  0.50  0.57  0.64  0.81  0.59  0.32  0.19  0.06
  0.23  0.24  0.33  0.37  0.46  0.46  0.48  0.48  0.48  0.44  0.34  0.28
  1.66  2.34  5.25 13.41 23.19 24.31 27.34 29.00 27.63 18.69  8.81  3.00
  6.05 10.35 22.11 66.81 55.37 74.24 63.59 71.60 53.76 34.34 34.98  7.86
 18.84 20.61 21.40 21.22 19.99 17.70 17.18 15.70 17.80 18.48 16.84 16.76
  0.70  0.64  0.60  0.68  0.80  0.86  0.88  0.90  0.88  0.82  0.79  0.75
  2.22  2.14  1.96  1.63  1.48  1.42  1.38  1.36  1.31  1.70  2.11  2.34
