 .Wgn file Subbasin: 164 STATION NAME:148n1062e 5/31/2016 12:00:00 AM ArcSWAT 2012.10_0.14
  LATITUDE =  14.83 LONGITUDE = 106.25
  ELEV [m] = 323.00
  RAIN_YRS =  32.00
 29.75 32.01 34.08 33.15 29.70 27.71 26.95 26.34 27.45 29.12 28.64 27.96
 15.66 17.12 19.34 21.10 21.67 21.74 21.47 21.56 21.07 19.59 17.88 16.03
  2.92  2.97  3.42  4.42  3.98  3.23  2.68  2.20  2.87  3.18  3.31  3.24
  2.16  2.33  2.26  1.32  0.94  0.89  0.93  0.79  0.98  1.49  1.96  2.16
  14.8  34.4  93.7 376.6 878.31117.71180.41220.9 867.7 395.1 118.5  26.5
  2.19  4.81  7.93 20.25 25.41 25.03 21.48 23.43 21.93 15.30  7.63  2.63
 15.09  7.58  5.14  3.63  2.59  1.55  1.37  2.03  2.29  3.06  4.39  6.73
  0.12  0.13  0.22  0.50  0.56  0.62  1.00  1.00  0.82  0.33  0.29  0.14
  0.32  0.34  0.41  0.44  0.49  0.50  0.50  0.50  0.50  0.48  0.42  0.36
  5.47  5.84 12.34 22.94 29.13 29.34 30.88 30.94 29.66 25.84 15.53  7.72
 18.29 23.93 30.15 63.01102.40 73.54 62.87 72.85 66.94 49.75 29.24 13.97
 17.94 18.78 18.42 17.16 16.90 16.12 15.92 14.53 15.71 17.01 16.26 16.24
  0.70  0.63  0.60  0.72  0.86  0.91  0.93  0.95  0.93  0.87  0.82  0.77
  2.04  2.08  2.00  1.77  1.61  1.63  1.61  1.62  1.41  1.67  2.04  2.23
