 .Wgn file Subbasin: 165 STATION NAME:142n1062e 5/31/2016 12:00:00 AM ArcSWAT 2012.10_0.14
  LATITUDE =  14.21 LONGITUDE = 106.25
  ELEV [m] =  70.00
  RAIN_YRS =  32.00
 32.71 35.56 37.94 37.46 33.50 31.37 30.47 29.68 30.28 32.07 31.54 30.90
 17.75 19.76 22.42 23.92 23.78 23.43 23.05 23.08 22.82 21.45 19.71 17.89
  3.00  3.05  3.54  4.50  4.13  3.76  3.23  2.91  3.20  3.51  3.58  3.41
  2.38  2.55  2.33  1.49  0.99  0.87  0.82  0.73  0.85  1.41  1.96  2.22
   3.1  11.3  42.2 181.1 407.0 477.7 487.2 551.9 482.6 230.7  68.6  16.9
  0.69  2.28  6.84 16.61 20.02 19.46 15.81 16.09 17.60 11.98  6.70  2.83
 13.74  9.79 10.34  5.67  4.13  3.85  3.56  2.48  2.89  4.41  8.70 12.72
  0.05  0.07  0.12  0.32  0.54  0.51  0.57  1.00  0.88  0.39  0.25  0.11
  0.21  0.22  0.33  0.41  0.47  0.48  0.49  0.50  0.49  0.47  0.39  0.28
  1.81  2.72  6.28 15.66 26.09 27.00 29.34 30.44 29.22 24.44 12.56  5.09
  5.19 13.14 38.41 58.18 65.46 81.55 61.09 53.01 54.89 39.71 39.40 19.25
 19.08 20.84 21.40 19.67 18.89 18.82 18.97 18.24 18.01 18.23 17.16 17.00
  0.62  0.54  0.51  0.60  0.77  0.84  0.87  0.90  0.88  0.82  0.75  0.70
  2.11  2.23  2.14  1.85  1.59  1.59  1.56  1.62  1.40  1.53  1.81  1.99
