 .Sol file Watershed HRU:1200 Subbasin:181 HRU:2 Luse:RFR1 Soil: Nd65-3ab-4544 Slope: 0-9999 5/31/2016 12:00:00 AM ArcSWAT 2012.10_0.14
 Soil Name: Nd65-3ab-4544
 Soil Hydrologic Group: C
 Maximum rooting depth(m) :  840.00
 Porosity fraction from which anions are excluded: 0.500
 Crack volume potential of soil: 0.500
 Texture 1                : CLAY
 Depth                [mm]:      300.00     1000.00
 Bulk Density Moist [g/cc]:        1.10        1.20
 Ave. AW Incl. Rock Frag  :        0.14        0.14
 Ksat. (est.)      [mm/hr]:       23.48       14.21
 Organic Carbon [weight %]:        2.30        0.80
 Clay           [weight %]:       41.00       46.00
 Silt           [weight %]:       32.00       24.00
 Sand           [weight %]:       27.00       29.00
 Rock Fragments   [vol. %]:        0.00        0.00
 Soil Albedo (Moist)      :        0.01        0.10
 Erosion K                :        0.26        0.26
 Salinity (EC, Form 5)    :        0.00        0.00
 Soil pH                  :        0.00        0.00
 Soil CACO3               :        0.00        0.00
                              
