 .Sol file Watershed HRU:1259 Subbasin:189 HRU:5 Luse:IRRU Soil: Lg39-3ab-4408 Slope: 0-9999 5/31/2016 12:00:00 AM ArcSWAT 2012.10_0.14
 Soil Name: Lg39-3ab-4408
 Soil Hydrologic Group: C
 Maximum rooting depth(m) : 1000.00
 Porosity fraction from which anions are excluded: 0.500
 Crack volume potential of soil: 0.500
 Texture 1                : CLAY_LOAM
 Depth                [mm]:      300.00     1000.00
 Bulk Density Moist [g/cc]:        1.10        1.40
 Ave. AW Incl. Rock Frag  :        0.18        0.18
 Ksat. (est.)      [mm/hr]:       20.48        5.05
 Organic Carbon [weight %]:        1.20        0.40
 Clay           [weight %]:       31.00       39.00
 Silt           [weight %]:       28.00       25.00
 Sand           [weight %]:       41.00       36.00
 Rock Fragments   [vol. %]:        0.00        0.00
 Soil Albedo (Moist)      :        0.05        0.23
 Erosion K                :        0.30        0.30
 Salinity (EC, Form 5)    :        0.00        0.00
 Soil pH                  :        0.00        0.00
 Soil CACO3               :        0.00        0.00
                              
