 .Sol file Watershed HRU:1329 Subbasin:199 HRU:5 Luse:IRRU Soil: WATER-6997 Slope: 0-9999 5/31/2016 12:00:00 AM ArcSWAT 2012.10_0.14
 Soil Name: WATER-6997
 Soil Hydrologic Group: D
 Maximum rooting depth(m) :   25.40
 Porosity fraction from which anions are excluded: 0.500
 Crack volume potential of soil: 0.500
 Texture 1                : WATER
 Depth                [mm]:       25.00
 Bulk Density Moist [g/cc]:        0.00
 Ave. AW Incl. Rock Frag  :        0.00
 Ksat. (est.)      [mm/hr]:       99.00
 Organic Carbon [weight %]:        0.00
 Clay           [weight %]:        0.00
 Silt           [weight %]:        0.00
 Sand           [weight %]:        0.00
 Rock Fragments   [vol. %]:        0.00
 Soil Albedo (Moist)      :        0.23
 Erosion K                :        0.00
 Salinity (EC, Form 5)    :        0.00
 Soil pH                  :        0.00
 Soil CACO3               :        0.00
                              
