 .Wgn file Subbasin: 193 STATION NAME:133n1059e 5/31/2016 12:00:00 AM ArcSWAT 2012.10_0.14
  LATITUDE =  13.27 LONGITUDE = 105.94
  ELEV [m] =  61.00
  RAIN_YRS =  32.00
 31.88 35.17 37.51 37.15 33.64 31.49 30.72 29.92 29.82 30.74 30.41 29.80
 19.29 21.05 23.00 24.14 23.90 23.58 23.25 23.24 22.97 21.84 20.39 18.97
  2.85  3.12  3.50  4.02  3.90  3.47  2.92  2.72  2.68  3.00  3.10  3.04
  2.13  2.09  1.92  1.30  0.94  0.76  0.70  0.63  0.79  1.23  1.78  2.07
   3.2  12.1  54.8 191.3 408.7 414.7 413.4 470.1 498.6 309.8  97.6  21.0
  0.63  1.97  7.77 15.15 17.43 13.83 12.55 14.48 16.66 13.24  7.68  3.01
  8.54  6.56 10.60  5.60  3.65  4.43  4.63  4.06  3.40  3.69  5.54 11.19
  0.04  0.06  0.14  0.37  0.65  0.59  0.69  1.00  0.93  0.36  0.23  0.11
  0.21  0.32  0.35  0.42  0.47  0.49  0.50  0.50  0.49  0.48  0.42  0.29
  1.47  2.88  7.69 17.72 27.34 28.25 30.00 30.56 29.56 26.22 14.13  5.41
  3.42  7.25 46.64 58.05 63.30 65.83 60.94 48.93 57.73 40.01 30.14 20.70
 19.65 20.71 20.88 18.38 17.60 17.29 18.01 17.42 17.34 17.66 17.23 17.44
  0.59  0.52  0.50  0.60  0.77  0.85  0.87  0.89  0.90  0.84  0.76  0.69
  3.34  2.94  2.54  2.02  1.82  1.88  1.89  1.95  1.62  1.81  2.48  3.03
