 .Wgn file Subbasin: 191 STATION NAME:126n1075e 5/31/2016 12:00:00 AM ArcSWAT 2012.10_0.14
  LATITUDE =  12.65 LONGITUDE = 107.50
  ELEV [m] = 351.00
  RAIN_YRS =  32.00
 27.99 31.19 33.70 34.56 32.25 29.68 29.10 28.36 28.93 29.08 27.34 25.87
 17.30 18.03 19.28 20.78 21.50 21.48 21.19 21.23 20.74 19.75 19.02 17.82
  3.34  3.49  2.94  2.94  3.53  3.40  3.13  3.25  3.06  2.97  3.50  3.42
  1.81  1.78  1.86  1.37  1.04  0.83  0.83  0.73  1.02  1.27  1.50  1.85
   8.9   9.4  31.0 115.9 254.7 310.0 269.1 325.7 363.6 304.5 123.2  38.0
  1.47  1.96  4.23  8.91 10.84 15.32 10.04 16.17 13.63 13.95  9.06  3.84
  8.99 12.57 10.08  5.17  3.42  7.94  3.72  5.83  3.87  4.80  4.17  5.93
  0.09  0.06  0.09  0.24  0.48  0.78  0.81  0.88  0.76  0.42  0.29  0.17
  0.22  0.32  0.37  0.41  0.47  0.49  0.48  0.49  0.50  0.46  0.41  0.37
  3.28  2.97  5.22 13.72 25.69 28.31 29.22 29.72 29.22 24.00 15.16  9.31
  8.44 13.70 28.79 35.65 36.87 99.37 35.97 69.99 53.68 70.57 33.32 17.75
 18.27 20.71 21.82 19.77 19.18 18.99 19.53 18.21 18.20 17.72 15.49 14.62
  0.70  0.60  0.56  0.63  0.78  0.86  0.87  0.88  0.89  0.85  0.81  0.78
  2.84  2.49  2.07  1.58  1.53  1.73  1.75  1.81  1.44  1.65  2.46  2.98
