 .Wgn file Subbasin: 192 STATION NAME:126n1028e 5/31/2016 12:00:00 AM ArcSWAT 2012.10_0.14
  LATITUDE =  12.65 LONGITUDE = 102.81
  ELEV [m] = 159.00
  RAIN_YRS =  32.00
 30.93 33.79 34.57 33.38 31.24 29.73 29.11 28.64 28.73 28.55 28.03 28.09
 17.07 19.77 21.46 22.61 23.08 22.94 22.53 22.54 22.22 20.73 18.84 16.65
  3.11  3.31  3.71  3.55  2.79  2.28  2.00  2.05  2.15  2.42  3.00  3.19
  2.74  2.27  1.61  1.05  0.78  0.62  0.63  0.56  0.86  1.55  2.14  2.59
  14.6  33.4  93.9 191.1 183.0 125.5 136.5 160.6 278.3 288.8  99.9  17.8
  2.07  4.27  6.63 10.43  9.15  7.31  7.00  7.47 12.58 12.32  7.29  2.29
  6.83 10.50  5.11  4.28  4.56  6.42  5.95  6.90  7.29  3.76  4.67  8.86
  0.07  0.15  0.23  0.37  0.49  0.59  0.63  0.82  0.86  0.41  0.26  0.09
  0.29  0.30  0.38  0.44  0.46  0.46  0.47  0.47  0.49  0.47  0.41  0.31
  3.44  6.28 12.41 19.13 24.06 24.16 26.00 27.97 29.13 25.69 13.91  4.59
  9.36 28.92 29.69 38.28 40.47 36.25 32.31 42.12 67.16 41.61 28.21 14.75
 19.34 18.67 19.57 19.43 21.10 20.73 20.60 19.46 18.59 18.07 17.40 18.23
  0.67  0.65  0.69  0.77  0.83  0.86  0.88  0.89  0.92  0.90  0.84  0.76
  1.85  1.68  1.68  1.56  1.77  2.03  2.00  1.98  1.43  1.28  1.75  2.03
