 .Wgn file Subbasin: 205 STATION NAME:126n1066e 5/31/2016 12:00:00 AM ArcSWAT 2012.10_0.14
  LATITUDE =  12.65 LONGITUDE = 106.56
  ELEV [m] = 111.00
  RAIN_YRS =  32.00
 32.68 35.74 38.08 37.31 34.05 31.47 30.69 29.97 30.04 31.07 31.04 30.37
 20.35 21.29 22.64 23.99 23.96 23.39 23.02 23.01 22.87 22.11 21.41 20.50
  2.91  3.16  3.38  3.74  3.70  3.53  3.07  2.89  2.90  3.07  3.32  3.19
  1.89  1.87  1.90  1.26  0.95  0.80  0.68  0.65  0.75  1.10  1.47  1.87
   3.4   9.0  34.5 130.4 289.0 364.0 344.3 416.0 431.3 325.9  93.4  17.6
  0.94  1.90  4.14 11.32 12.98 17.49 12.87 16.46 14.83 17.26  7.96  2.31
 13.40 10.77  7.65  6.72  3.86  5.57  6.47  6.09  3.88  5.06  5.94  6.04
  0.02  0.03  0.11  0.26  0.54  0.71  0.87  0.80  0.93  0.38  0.22  0.08
  0.21  0.37  0.37  0.44  0.46  0.48  0.49  0.50  0.49  0.47  0.40  0.32
  1.06  1.84  6.50 14.84 25.59 27.66 29.59 30.38 29.53 25.06 12.13  4.16
  6.68 12.51 23.85 51.95 40.33 65.93 73.06 88.30 48.41 68.49 38.17  8.89
 19.51 21.20 21.26 18.70 18.53 18.65 19.31 18.82 18.31 18.08 17.38 17.47
  0.56  0.49  0.49  0.58  0.74  0.84  0.87  0.89  0.89  0.83  0.73  0.65
  3.90  3.15  2.51  1.99  1.97  2.06  2.08  2.11  1.71  1.91  3.07  4.10
