 .Sol file Watershed HRU:1395 Subbasin:209 HRU:1 Luse:IRR1 Soil: Je72-2a-4393 Slope: 0-9999 5/31/2016 12:00:00 AM ArcSWAT 2012.10_0.14
 Soil Name: Je72-2a-4393
 Soil Hydrologic Group: C
 Maximum rooting depth(m) : 1000.00
 Porosity fraction from which anions are excluded: 0.500
 Crack volume potential of soil: 0.500
 Texture 1                : LOAM
 Depth                [mm]:      300.00     1000.00
 Bulk Density Moist [g/cc]:        0.90        1.00
 Ave. AW Incl. Rock Frag  :        0.00        0.00
 Ksat. (est.)      [mm/hr]:       62.29       36.87
 Organic Carbon [weight %]:        1.20        0.40
 Clay           [weight %]:       22.00       24.00
 Silt           [weight %]:       38.00       37.00
 Sand           [weight %]:       40.00       38.00
 Rock Fragments   [vol. %]:        0.00        0.00
 Soil Albedo (Moist)      :        0.05        0.23
 Erosion K                :        0.28        0.28
 Salinity (EC, Form 5)    :        0.00        0.00
 Soil pH                  :        0.00        0.00
 Soil CACO3               :        0.00        0.00
                              
