 .Wgn file Subbasin: 200 STATION NAME:126n1041e 5/31/2016 12:00:00 AM ArcSWAT 2012.10_0.14
  LATITUDE =  12.65 LONGITUDE = 104.06
  ELEV [m] =  11.00
  RAIN_YRS =  32.00
 31.55 34.95 37.90 38.17 36.04 33.78 32.15 31.44 31.00 30.06 29.35 29.17
 20.68 22.80 24.92 25.91 25.45 24.69 24.04 24.05 24.07 23.41 22.06 20.52
  2.65  2.80  3.37  3.93  3.80  3.46  2.43  2.25  2.11  2.27  2.88  2.96
  2.16  2.05  1.66  1.13  1.02  0.89  0.74  0.67  0.64  1.07  1.71  2.08
   3.6   7.3  37.0 112.2 190.9 186.9 177.3 196.9 263.0 206.8  78.1  18.5
  0.75  1.54  6.06  9.98 10.67 10.39  6.23  7.15 11.28 12.40  6.62  2.34
  9.39 10.70 12.94  4.69  4.80  9.44  2.69  4.22  5.14  4.51  6.28  8.15
  0.04  0.06  0.11  0.25  0.41  0.45  0.68  0.78  0.79  0.46  0.31  0.13
  0.26  0.25  0.29  0.36  0.43  0.45  0.45  0.47  0.48  0.45  0.38  0.34
  1.56  2.25  5.25 11.28 20.13 22.19 25.56 27.16 27.31 23.03 14.22  6.06
  3.88  9.31 46.24 35.72 38.12 68.51 22.10 33.09 46.25 46.34 28.10 11.71
 20.14 21.55 22.18 19.86 20.19 21.03 21.81 21.20 20.33 19.45 17.62 17.73
  0.60  0.51  0.50  0.57  0.69  0.76  0.81  0.83  0.85  0.84  0.78  0.70
  2.19  2.30  2.23  2.03  1.89  1.88  1.83  1.87  1.62  1.74  2.04  2.18
