 .Sol file Watershed HRU:1452 Subbasin:217 HRU:2 Luse:RFR1 Soil: Ge57-3a-4502 Slope: 0-9999 5/31/2016 12:00:00 AM ArcSWAT 2012.10_0.14
 Soil Name: Ge57-3a-4502
 Soil Hydrologic Group: C
 Maximum rooting depth(m) : 1000.00
 Porosity fraction from which anions are excluded: 0.500
 Crack volume potential of soil: 0.500
 Texture 1                : CLAY
 Depth                [mm]:      300.00     1000.00
 Bulk Density Moist [g/cc]:        1.20        1.50
 Ave. AW Incl. Rock Frag  :        0.00        0.00
 Ksat. (est.)      [mm/hr]:       13.26        2.48
 Organic Carbon [weight %]:        1.50        0.80
 Clay           [weight %]:       43.00       46.00
 Silt           [weight %]:       35.00       35.00
 Sand           [weight %]:       21.00       19.00
 Rock Fragments   [vol. %]:        0.00        0.00
 Soil Albedo (Moist)      :        0.03        0.10
 Erosion K                :        0.26        0.26
 Salinity (EC, Form 5)    :        0.00        0.00
 Soil pH                  :        0.00        0.00
 Soil CACO3               :        0.00        0.00
                              
