 .Wgn file Subbasin: 212 STATION NAME:120n1059e 5/31/2016 12:00:00 AM ArcSWAT 2012.10_0.14
  LATITUDE =  12.02 LONGITUDE = 105.94
  ELEV [m] =  97.00
  RAIN_YRS =  32.00
 33.18 35.87 37.85 37.43 34.45 31.96 31.05 30.42 30.19 30.61 30.91 30.93
 19.79 21.32 23.25 24.60 24.34 23.63 23.26 23.25 23.20 22.36 21.03 19.94
  2.61  2.63  3.14  3.68  3.77  3.44  2.82  2.70  2.49  2.75  3.00  3.09
  2.13  2.12  1.87  1.26  1.01  0.81  0.68  0.64  0.69  1.15  1.49  1.91
  11.2  20.2  56.2 186.5 383.0 402.0 393.4 448.2 481.3 415.7 156.6  36.8
  1.66  3.76  5.59 13.50 14.69 15.06  9.41 12.85 11.54 16.47  8.37  3.39
  7.00  9.43  6.29  5.26  3.27  6.76  3.46  4.74  2.91  4.31  3.49  4.34
  0.07  0.07  0.15  0.36  0.62  0.74  0.89  0.82  0.80  0.51  0.27  0.13
  0.28  0.32  0.39  0.41  0.47  0.50  0.49  0.50  0.50  0.49  0.45  0.38
  3.00  3.56  9.44 18.00 27.38 28.66 30.44 30.66 29.84 28.56 17.81  7.47
  7.85 19.38 25.63 58.34 44.96 77.87 42.59 60.01 40.37 59.08 31.93 10.58
 19.09 20.44 20.06 17.40 18.02 18.46 19.26 18.89 18.47 17.90 17.71 17.59
  0.58  0.51  0.51  0.59  0.75  0.84  0.87  0.88  0.90  0.87  0.78  0.67
  3.04  2.70  2.45  2.13  2.05  2.08  2.10  2.15  1.74  1.79  2.67  3.55
