 .Wgn file Subbasin: 210 STATION NAME:123n1081e 5/31/2016 12:00:00 AM ArcSWAT 2012.10_0.14
  LATITUDE =  12.33 LONGITUDE = 108.13
  ELEV [m] = 667.00
  RAIN_YRS =  32.00
 23.91 27.26 30.06 31.27 29.48 27.19 26.70 26.18 26.78 26.31 23.80 22.01
 15.61 16.09 17.29 18.57 19.20 19.15 18.82 18.96 18.36 17.74 17.39 16.27
  3.83  4.08  3.38  2.85  3.28  3.06  2.96  3.18  2.83  2.96  3.60  3.51
  1.66  1.62  1.56  1.18  1.05  1.03  1.20  1.12  1.43  1.55  1.66  1.82
  27.5  17.2  30.7  84.0 239.5 307.7 269.7 295.4 342.3 260.7 152.4  85.1
  1.97  1.65  3.49  6.81 11.02 12.66  9.47 12.77 13.26 14.85 11.03  6.18
  4.81  5.04  6.06  6.65  3.42  3.93  2.56  4.81  3.11  5.03  5.61  8.33
  0.21  0.13  0.14  0.25  0.49  0.74  0.70  0.69  0.64  0.44  0.51  0.34
  0.40  0.37  0.33  0.39  0.47  0.48  0.47  0.47  0.49  0.48  0.45  0.44
 11.50  6.94  6.88 12.88 24.41 27.56 27.22 27.56 27.72 24.59 22.28 20.03
  8.05  6.67 13.91 32.68 33.37 46.62 25.32 63.75 40.85 61.26 45.69 37.79
 14.63 18.18 19.69 18.05 16.93 17.01 17.38 16.29 16.28 14.99 11.61 10.21
  0.80  0.70  0.63  0.67  0.80  0.87  0.87  0.88  0.89  0.88  0.88  0.87
  2.49  2.35  2.12  1.68  1.55  1.77  1.81  1.91  1.49  1.62  2.25  2.65
