 .Wgn file Subbasin: 220 STATION NAME:117n1044e 5/31/2016 12:00:00 AM ArcSWAT 2012.10_0.14
  LATITUDE =  11.71 LONGITUDE = 104.38
  ELEV [m] =  89.00
  RAIN_YRS =  32.00
 31.61 34.30 35.59 34.82 32.56 30.75 29.92 29.48 29.47 28.87 28.37 28.62
 19.11 21.05 22.67 23.41 23.31 22.80 22.37 22.42 22.30 21.43 20.34 19.15
  2.71  2.47  2.96  3.20  2.97  2.79  2.17  2.17  2.08  2.15  2.54  2.94
  2.04  1.89  1.32  0.87  0.77  0.71  0.67  0.61  0.71  1.08  1.40  1.83
   9.2  14.5  58.1 158.0 200.8 202.1 206.6 223.4 313.1 301.3 112.2  24.1
  1.62  2.51  7.03 11.86  8.89  8.23  5.67  7.00  9.23 14.18  7.86  3.21
  8.75  9.62  8.51  5.16  3.96  5.87  2.13  4.82  3.86  5.63  6.06 10.71
  0.05  0.08  0.18  0.33  0.58  0.75  0.76  0.81  0.89  0.43  0.29  0.11
  0.29  0.25  0.35  0.41  0.46  0.47  0.48  0.49  0.50  0.49  0.43  0.36
  2.44  3.16  8.69 16.16 24.44 26.69 28.88 28.84 29.41 27.53 16.81  6.47
  9.17 16.00 38.19 39.92 32.04 37.43 18.62 33.48 40.11 62.15 35.91 19.11
 19.75 19.56 19.02 17.79 20.01 19.54 19.79 19.00 18.77 18.27 18.27 18.54
  0.60  0.54  0.57  0.67  0.78  0.85  0.88  0.89  0.91  0.90  0.84  0.73
  1.81  1.63  1.60  1.47  1.60  1.67  1.65  1.68  1.31  1.22  1.74  2.13
