 .Wgn file Subbasin: 226 STATION NAME:114n1050e 5/31/2016 12:00:00 AM ArcSWAT 2012.10_0.14
  LATITUDE =  11.40 LONGITUDE = 105.00
  ELEV [m] =   6.00
  RAIN_YRS =  32.00
 33.05 35.53 37.14 36.58 34.16 31.75 30.64 30.15 30.15 29.59 29.68 30.34
 21.08 22.49 24.31 25.37 24.96 24.09 23.65 23.66 23.85 23.25 21.89 20.87
  2.59  2.38  2.76  3.15  3.20  3.01  2.31  2.15  2.01  2.06  2.54  3.04
  2.07  1.88  1.55  1.19  1.00  0.87  0.71  0.66  0.65  1.00  1.47  1.78
  11.6  17.2  53.8 161.0 240.4 256.5 255.7 279.8 373.5 348.3 161.9  41.7
  1.53  3.84  6.00 12.72  9.74  9.08  6.11  7.69 11.64 13.78  8.66  3.97
  6.85 15.34  6.83  6.73  3.04  4.20  1.12  4.25  5.18  4.02  3.37  6.27
  0.10  0.08  0.17  0.37  0.56  0.79  0.77  0.81  0.88  0.54  0.32  0.13
  0.27  0.32  0.35  0.41  0.46  0.47  0.48  0.49  0.50  0.48  0.45  0.37
  4.00  3.63  8.66 17.25 24.63 27.00 29.06 29.69 29.47 28.47 19.31  8.03
  8.12 26.69 25.96 59.20 30.88 42.89 14.70 41.97 62.23 46.11 26.67 21.16
 19.14 20.16 19.09 16.59 19.24 19.52 20.07 19.78 19.57 18.13 18.08 17.79
  0.56  0.51  0.52  0.60  0.73  0.82  0.86  0.87  0.88  0.88  0.81  0.67
  2.09  1.98  1.93  1.72  1.76  1.83  1.80  1.86  1.46  1.36  2.02  2.58
