 .Wgn file Subbasin: 233 STATION NAME:111n1053e 5/31/2016 12:00:00 AM ArcSWAT 2012.10_0.14
  LATITUDE =  11.08 LONGITUDE = 105.31
  ELEV [m] =   6.00
  RAIN_YRS =  32.00
 33.05 35.50 37.24 36.69 34.27 31.69 30.72 30.34 30.44 30.00 30.14 30.71
 21.34 22.56 24.58 25.97 25.53 24.48 24.01 24.00 24.14 23.62 22.28 21.27
  2.51  2.31  2.75  3.13  3.16  2.89  2.35  2.28  2.16  2.12  2.50  2.92
  2.04  1.84  1.52  1.12  1.03  0.87  0.68  0.63  0.65  0.99  1.51  1.81
  16.7  22.3  60.1 177.6 280.4 292.6 286.7 299.0 392.8 390.7 211.7  58.8
  1.93  5.06  5.96 12.40 10.08 10.29  7.12  7.83 11.89 12.83 11.18  4.98
  5.41 15.63  6.27  6.53  2.68  4.93  1.54  2.67  4.34  3.80  6.22  5.76
  0.13  0.10  0.16  0.39  0.59  0.83  0.78  0.86  0.82  0.60  0.38  0.16
  0.30  0.32  0.38  0.42  0.48  0.48  0.49  0.49  0.50  0.50  0.45  0.40
  5.44  4.28  9.06 18.41 26.31 28.00 29.59 29.88 29.66 29.34 21.53 10.22
  7.49 36.69 27.04 60.67 33.10 53.32 24.28 31.52 53.46 47.73 64.08 22.90
 18.93 19.71 18.27 15.88 18.82 19.77 20.17 19.87 19.80 18.20 18.05 17.63
  0.57  0.53  0.52  0.58  0.71  0.81  0.84  0.85  0.86  0.86  0.79  0.67
  2.48  2.46  2.39  2.16  2.19  2.28  2.27  2.38  1.90  1.71  2.48  3.18
