 .Wgn file Subbasin: 237 STATION NAME:101n1056e 5/31/2016 12:00:00 AM ArcSWAT 2012.10_0.14
  LATITUDE =  10.15 LONGITUDE = 105.63
  ELEV [m] =   1.00
  RAIN_YRS =  32.00
 32.19 34.72 36.20 35.96 33.84 31.13 30.29 30.05 30.21 30.06 30.30 30.47
 20.80 21.46 23.12 24.76 25.04 24.15 23.69 23.84 23.92 23.61 22.43 21.18
  2.42  2.25  2.45  2.82  2.96  2.46  2.10  2.08  2.06  1.92  2.17  2.66
  1.99  1.76  1.64  1.13  0.93  0.77  0.68  0.58  0.60  0.85  1.41  1.68
  19.7  17.8  54.9 139.0 281.6 312.0 303.4 312.7 368.3 394.4 236.2  75.5
  2.36  3.58  5.34  7.65  8.49 10.31  6.99  8.69  8.46 10.56  9.73  6.01
  6.18 12.53  5.77  2.38  1.43  7.49  1.51  6.48  2.17  4.15  4.33  6.84
  0.12  0.07  0.15  0.37  0.59  0.76  0.94  0.94  0.92  0.90  0.48  0.23
  0.28  0.27  0.36  0.40  0.47  0.49  0.49  0.50  0.49  0.49  0.46  0.40
  5.28  3.22  7.75 17.09 26.31 28.56 30.00 29.88 29.63 30.06 23.75 12.50
  9.53 25.92 28.03 17.97 24.80 66.76 21.73 55.81 27.15 44.21 45.85 30.59
 17.35 16.75 15.41 14.61 18.29 20.27 20.57 20.36 20.03 18.71 17.84 16.71
  0.65  0.60  0.58  0.62  0.73  0.83  0.86  0.86  0.86  0.86  0.80  0.71
  3.01  3.19  2.87  2.33  2.28  2.43  2.43  2.66  2.23  1.96  2.60  3.12
