 .Wgn file Subbasin: 243 STATION NAME:180n1028e 5/31/2016 12:00:00 AM ArcSWAT 2012.10_0.14
  LATITUDE =  17.95 LONGITUDE = 102.81
  ELEV [m] = 164.00
  RAIN_YRS =  32.00
 28.66 31.95 35.57 36.36 32.83 31.38 30.31 29.55 29.59 29.13 28.39 27.53
 15.51 18.19 21.05 23.53 24.01 24.15 23.63 23.40 22.44 20.19 17.20 14.74
  4.73  5.55  5.45  4.57  4.24  3.22  2.79  2.23  2.22  2.47  3.37  3.95
  3.22  3.34  3.03  2.00  1.44  1.00  0.80  0.65  1.23  2.17  3.06  3.47
  27.6  34.4  69.8 208.9 567.6 499.5 526.9 539.6 425.6 194.8  43.8  13.1
  3.65  4.32  8.21 15.52 20.01 14.76 14.73 15.73 16.73 12.23  4.82  2.04
  6.84  7.50  9.31  4.98  2.44  2.22  3.00  2.96  2.43  5.12  6.44  8.15
  0.09  0.13  0.18  0.36  0.64  0.43  0.62  1.00  0.40  0.20  0.13  0.07
  0.37  0.35  0.36  0.44  0.47  0.49  0.50  0.49  0.49  0.46  0.34  0.29
  5.22  6.66  9.81 18.53 27.63 27.50 29.78 30.72 27.50 18.59  6.97  3.31
 17.47 23.51 47.12 60.19 51.72 41.52 57.95 52.50 43.85 60.31 24.19  9.52
 15.57 17.11 19.31 18.60 18.47 19.25 18.91 18.22 18.65 18.35 16.91 15.61
  0.61  0.53  0.48  0.57  0.75  0.82  0.86  0.89  0.88  0.83  0.73  0.66
  1.73  1.86  1.78  1.62  1.37  1.29  1.26  1.29  1.22  1.38  1.49  1.60
