 .Sol file Watershed HRU:1719 Subbasin:254 HRU:1 Luse:IRR1 Soil: Vp66-3a-4427 Slope: 0-9999 5/31/2016 12:00:00 AM ArcSWAT 2012.10_0.14
 Soil Name: Vp66-3a-4427
 Soil Hydrologic Group: C
 Maximum rooting depth(m) : 1000.00
 Porosity fraction from which anions are excluded: 0.500
 Crack volume potential of soil: 0.500
 Texture 1                : CLAY
 Depth                [mm]:      300.00     1000.00
 Bulk Density Moist [g/cc]:        1.10        1.30
 Ave. AW Incl. Rock Frag  :        0.13        0.13
 Ksat. (est.)      [mm/hr]:       23.20        8.12
 Organic Carbon [weight %]:        1.30        0.70
 Clay           [weight %]:       47.00       51.00
 Silt           [weight %]:       29.00       25.00
 Sand           [weight %]:       25.00       23.00
 Rock Fragments   [vol. %]:        0.00        0.00
 Soil Albedo (Moist)      :        0.04        0.13
 Erosion K                :        0.22        0.22
 Salinity (EC, Form 5)    :        0.00        0.00
 Soil pH                  :        0.00        0.00
 Soil CACO3               :        0.00        0.00
                              
