 .Wgn file Subbasin: 254 STATION NAME:220n1009e 5/31/2016 12:00:00 AM ArcSWAT 2012.10_0.14
  LATITUDE =  22.01 LONGITUDE = 100.94
  ELEV [m] =1249.00
  RAIN_YRS =  32.00
 20.73 24.17 29.00 31.10 29.23 27.61 27.18 27.76 27.27 25.20 22.63 19.69
  8.09  9.20 12.83 16.29 18.24 19.74 19.39 18.77 17.06 14.99 11.16  8.45
  4.63  5.17  4.79  3.72  4.32  3.06  3.31  3.31  3.31  3.48  4.03  4.07
  2.54  2.32  2.56  1.94  1.87  1.19  1.20  1.50  2.09  2.63  3.19  3.55
  35.2  29.7  25.6  58.2 227.5 293.5 304.0 298.6 219.8 158.2  84.9  41.7
  3.00  3.03  2.45  5.31 13.43 14.56 12.13 13.79 11.76  9.75  7.95  3.56
  7.94  6.26  4.51  6.45  4.93  4.89  3.53  3.97  4.63  4.16  5.91  6.32
  0.20  0.14  0.11  0.21  0.37  0.63  0.76  0.73  0.41  0.35  0.22  0.23
  0.39  0.37  0.34  0.39  0.46  0.49  0.50  0.48  0.46  0.45  0.40  0.36
 11.34  8.03  6.28 10.06 21.84 28.06 29.81 29.13 24.06 20.34 12.81 11.91
 17.19 14.66  9.01 29.44 59.00 61.98 44.39 48.16 54.97 30.72 39.14 18.85
 12.55 16.25 19.87 19.40 19.27 17.74 16.54 17.15 17.29 14.74 12.55 10.72
  0.80  0.67  0.51  0.55  0.76  0.87  0.90  0.89  0.87  0.87  0.84  0.85
  1.29  1.44  1.58  1.49  1.40  1.34  1.24  1.15  1.12  1.15  1.18  1.19
