 .Sol file Watershed HRU:1739 Subbasin:258 HRU:1 Luse:IRR1 Soil: Ao41-2ab-4271 Slope: 0-9999 5/31/2016 12:00:00 AM ArcSWAT 2012.10_0.14
 Soil Name: Ao41-2ab-4271
 Soil Hydrologic Group: C
 Maximum rooting depth(m) : 1000.00
 Porosity fraction from which anions are excluded: 0.500
 Crack volume potential of soil: 0.500
 Texture 1                : LOAM
 Depth                [mm]:      300.00     1000.00
 Bulk Density Moist [g/cc]:        1.30        1.30
 Ave. AW Incl. Rock Frag  :        0.18        0.18
 Ksat. (est.)      [mm/hr]:       11.48        9.37
 Organic Carbon [weight %]:        2.50        0.90
 Clay           [weight %]:       22.00       28.00
 Silt           [weight %]:       29.00       25.00
 Sand           [weight %]:       49.00       46.00
 Rock Fragments   [vol. %]:        0.00        0.00
 Soil Albedo (Moist)      :        0.00        0.09
 Erosion K                :        0.27        0.27
 Salinity (EC, Form 5)    :        0.00        0.00
 Soil pH                  :        0.00        0.00
 Soil CACO3               :        0.00        0.00
                              
