 .Wgn file Subbasin: 277 STATION NAME:189n1028e 5/31/2016 12:00:00 AM ArcSWAT 2012.10_0.14
  LATITUDE =  18.89 LONGITUDE = 102.81
  ELEV [m] = 681.00
  RAIN_YRS =  32.00
 23.46 25.74 28.43 28.54 25.85 24.94 24.30 24.51 26.06 26.09 25.22 23.39
  9.48 10.51 13.16 16.33 18.29 19.40 19.09 19.19 18.11 16.33 13.43 10.22
  3.06  3.63  3.86  3.51  3.06  2.54  2.30  2.40  3.04  2.88  2.77  2.74
  2.93  2.90  2.84  2.11  1.69  1.21  1.37  1.32  1.56  1.85  2.82  3.46
  22.8  32.6  85.7 274.2 711.4 818.1 879.2 902.6 550.8 245.2  79.2  22.4
  2.79  4.00  6.76 11.46 21.05 19.05 18.27 22.07 17.75 11.66  5.55  2.50
  7.50 10.67  4.59  2.36  2.93  2.15  2.53  2.86  2.17  3.76  3.51  6.68
  0.12  0.14  0.19  0.42  0.67  0.55  0.70  0.00  0.40  0.29  0.21  0.11
  0.34  0.36  0.39  0.44  0.49  0.49  0.50  0.50  0.50  0.45  0.41  0.36
  5.94  6.97 10.56 21.72 29.25 28.97 30.69 31.00 28.06 21.03 12.38  6.03
 12.72 28.44 25.11 36.03 69.21 54.68 61.75 75.72 45.60 43.86 14.46 11.86
 15.47 18.21 20.73 20.90 17.57 15.72 15.10 14.14 15.22 14.75 14.96 14.46
  0.76  0.70  0.64  0.74  0.89  0.93  0.95  0.95  0.91  0.85  0.78  0.76
  1.49  1.66  1.71  1.43  1.23  1.24  1.22  1.18  1.23  1.43  1.49  1.49
