 .Wgn file Subbasin: 281 STATION NAME:217n1009e 5/31/2016 12:00:00 AM ArcSWAT 2012.10_0.14
  LATITUDE =  21.70 LONGITUDE = 100.94
  ELEV [m] = 599.00
  RAIN_YRS =  32.00
 21.16 24.67 29.39 31.42 29.24 27.59 27.08 27.73 27.41 25.45 23.07 20.17
  7.87  8.98 12.93 16.71 18.48 19.85 19.55 18.95 17.09 15.05 11.15  8.32
  4.63  5.10  4.74  3.71  4.31  3.10  3.32  3.34  3.37  3.46  4.12  4.11
  2.61  2.46  2.68  1.95  1.83  1.16  1.16  1.46  2.16  2.60  3.23  3.52
  33.6  27.1  27.1  63.5 230.1 260.8 282.3 286.7 223.8 153.9  79.2  38.7
  2.95  2.83  2.81  5.32 13.29 12.46 11.81 12.95 12.45  9.72  7.67  3.50
  8.83  6.24  5.44  4.62  4.94  4.21  4.13  4.03  5.12  5.07  5.82  6.51
  0.20  0.12  0.11  0.24  0.44  0.70  0.72  0.77  0.41  0.34  0.20  0.21
  0.39  0.38  0.36  0.36  0.46  0.48  0.49  0.50  0.47  0.45  0.41  0.37
 10.78  7.19  6.34 10.94 23.28 27.72 29.66 28.97 24.38 20.56 12.09 11.41
 19.79 14.55 11.44 22.00 55.57 45.91 48.22 45.56 55.69 35.85 31.74 17.87
 12.81 16.69 20.31 19.53 19.15 17.62 16.51 16.96 17.12 14.91 12.92 11.15
  0.81  0.68  0.51  0.55  0.77  0.87  0.90  0.89  0.87  0.87  0.84  0.85
  1.26  1.41  1.55  1.49  1.42  1.41  1.32  1.19  1.13  1.17  1.20  1.18
