 .Sol file Watershed HRU:8 Subbasin:1 HRU:8 Luse:WETL Soil: I-K-U-2c-3724 Slope: 0-9999 11/5/2015 12:00:00 AM ArcSWAT 2012.10_0.14
 Soil Name: I-K-U-2c-3724
 Soil Hydrologic Group: C
 Maximum rooting depth(m) :  350.00
 Porosity fraction from which anions are excluded: 0.500
 Crack volume potential of soil: 0.500
 Texture 1                : LOAM
 Depth                [mm]:      300.00     1000.00
 Bulk Density Moist [g/cc]:        1.20        1.30
 Ave. AW Incl. Rock Frag  :        0.06        0.06
 Ksat. (est.)      [mm/hr]:       14.38        7.68
 Organic Carbon [weight %]:        1.60        1.20
 Clay           [weight %]:       26.00       30.00
 Silt           [weight %]:       28.00       29.00
 Sand           [weight %]:       46.00       41.00
 Rock Fragments   [vol. %]:        0.00        0.00
 Soil Albedo (Moist)      :        0.02        0.05
 Erosion K                :        0.25        0.25
 Salinity (EC, Form 5)    :        0.00        0.00
 Soil pH                  :        0.00        0.00
 Soil CACO3               :        0.00        0.00
                              
