 .Wgn file Subbasin: 5 STATION NAME:270n994e 11/5/2015 12:00:00 AM ArcSWAT 2012.10_0.14
  LATITUDE =  27.01 LONGITUDE =  99.38
  ELEV [m] =2738.00
  RAIN_YRS =  32.00
  6.71  7.05  9.17 11.94 15.13 16.98 17.79 18.88 16.20 13.04 10.82  8.47
 -7.13 -5.36 -1.79  2.18  6.09  9.99 10.68  9.88  8.41  3.10 -2.95 -6.08
  3.27  3.46  3.46  3.32  3.47  3.15  3.27  3.30  3.34  3.54  3.21  3.14
  3.56  4.04  3.92  3.12  2.91  2.05  1.71  2.04  2.55  4.53  3.56  3.30
  33.4  55.4  73.3  69.2 118.9 167.1 187.2 171.2 182.8 141.2  37.6  26.3
  3.13  4.31  4.78  4.32  8.33  7.96  7.17  7.47  8.83  9.71  4.00  2.90
  4.83  4.66  4.09  3.99  5.17  4.36  3.45  3.16  2.96  3.63  5.87  5.56
  0.18  0.25  0.28  0.35  0.56  0.72  0.89  0.89  0.60  0.25  0.18  0.15
  0.36  0.40  0.42  0.43  0.44  0.48  0.49  0.48  0.48  0.44  0.34  0.34
  8.34 12.44 15.94 18.00 22.19 27.78 29.84 28.69 26.13 17.75  8.53  7.16
 10.02 17.02 19.03 14.80 31.93 32.73 28.45 20.53 24.62 27.23 17.96  9.10
 14.64 15.48 16.30 17.27 17.43 14.11 13.44 14.84 11.58 12.23 14.24 14.01
  0.79  0.82  0.84  0.86  0.87  0.90  0.91  0.89  0.91  0.88  0.82  0.76
  2.71  2.99  3.17  3.02  2.61  2.36  2.19  2.01  1.95  2.09  2.26  2.51
