 .Wgn file Subbasin: 7 STATION NAME:236n1003e 11/5/2015 12:00:00 AM ArcSWAT 2012.10_0.14
  LATITUDE =  23.57 LONGITUDE = 100.31
  ELEV [m] =1583.00
  RAIN_YRS =  32.00
 17.77 20.97 24.82 27.19 26.61 24.94 24.42 25.17 23.99 21.44 18.80 16.29
  4.37  5.36  8.81 12.14 15.06 17.48 17.29 16.56 14.77 12.65  8.39  5.46
  3.50  3.87  3.65  3.13  3.97  3.14  2.99  2.90  3.06  3.30  3.42  3.24
  2.69  2.36  2.25  1.94  2.08  1.37  1.28  1.67  2.25  2.88  3.46  3.57
  31.5  30.9  26.8  49.4 197.8 306.4 313.1 282.3 288.3 234.7 115.4  55.6
  2.93  3.59  3.49  4.94 12.12 14.68 13.05 13.19 15.11 12.46  9.39  4.32
  8.26  5.90  7.13  5.12  3.46  3.37  3.09  3.15  3.51  3.47  6.60  5.52
  0.19  0.14  0.10  0.16  0.34  0.70  0.81  0.65  0.48  0.43  0.25  0.25
  0.37  0.37  0.33  0.34  0.42  0.49  0.49  0.49  0.48  0.46  0.43  0.41
  9.81  6.94  5.66  7.56 18.25 28.00 30.03 28.22 24.81 23.72 15.63 14.00
 18.44 12.29 15.18 18.18 34.49 48.00 41.13 36.39 41.04 38.17 53.39 19.30
 13.69 18.04 21.33 22.29 20.32 16.80 15.61 17.24 16.26 12.80 11.61 10.50
  0.80  0.67  0.54  0.56  0.73  0.87  0.91  0.89  0.89  0.91  0.88  0.88
  1.38  1.65  1.85  1.78  1.51  1.29  1.21  1.16  1.13  1.13  1.15  1.16
