 .Wgn file Subbasin: 3 STATION NAME:304n978e 11/5/2015 12:00:00 AM ArcSWAT 2012.10_0.14
  LATITUDE =  30.44 LONGITUDE =  97.81
  ELEV [m] =4547.00
  RAIN_YRS =  32.00
 -4.89 -3.39 -0.56  3.48  8.85 12.43 12.79 12.30  9.39  4.75 -0.96 -4.22
-18.90-16.94-12.52 -6.82 -1.61  3.24  4.68  4.46  2.13 -2.91-11.93-17.62
  3.09  3.10  2.75  3.00  3.13  3.05  2.77  2.64  2.95  3.01  2.73  3.02
  5.17  4.96  4.52  3.42  2.50  2.31  2.16  2.17  2.71  3.39  5.19  4.98
  13.5  19.6  36.7  44.6  52.1  84.9 127.0 125.5  85.8  43.1  21.0  11.7
  0.99  1.17  1.85  2.38  2.73  3.67  5.38  5.33  3.86  3.01  1.85  1.08
  4.31  2.80  2.37  2.44  2.67  2.38  3.51  2.97  2.19  3.71  4.61  5.82
  0.23  0.33  0.42  0.42  0.41  0.50  0.57  0.60  0.51  0.23  0.18  0.15
  0.32  0.34  0.37  0.38  0.40  0.44  0.47  0.46  0.44  0.40  0.34  0.34
  9.25 11.94 15.41 15.31 16.75 21.06 24.97 25.16 21.13 13.50  8.09  6.78
  3.67  3.84  4.37  5.55  7.71 11.30 21.16 17.32  8.02  9.12  7.33  5.12
 16.07 19.34 23.37 26.93 27.00 22.96 20.05 18.39 17.11 18.03 16.96 15.16
  0.70  0.72  0.75  0.71  0.63  0.65  0.72  0.73  0.76  0.73  0.71  0.71
  4.46  4.78  4.91  4.50  4.08  3.61  3.18  3.11  3.32  3.58  3.65  3.95
