 .Sol file Watershed HRU:56 Subbasin:7 HRU:8 Luse:WETL Soil: Af50-3bc-4257 Slope: 0-9999 11/5/2015 12:00:00 AM ArcSWAT 2012.10_0.14
 Soil Name: Af50-3bc-4257
 Soil Hydrologic Group: C
 Maximum rooting depth(m) :  230.00
 Porosity fraction from which anions are excluded: 0.500
 Crack volume potential of soil: 0.500
 Texture 1                : CLAY
 Depth                [mm]:      300.00     1000.00
 Bulk Density Moist [g/cc]:        1.20        1.30
 Ave. AW Incl. Rock Frag  :        0.03        0.03
 Ksat. (est.)      [mm/hr]:       14.66        8.75
 Organic Carbon [weight %]:        1.60        0.50
 Clay           [weight %]:       41.00       49.00
 Silt           [weight %]:       24.00       23.00
 Sand           [weight %]:       35.00       28.00
 Rock Fragments   [vol. %]:        0.00        0.00
 Soil Albedo (Moist)      :        0.02        0.19
 Erosion K                :        0.24        0.24
 Salinity (EC, Form 5)    :        0.00        0.00
 Soil pH                  :        0.00        0.00
 Soil CACO3               :        0.00        0.00
                              
