 .Wgn file Subbasin: 4 STATION NAME:276n991e 11/5/2015 12:00:00 AM ArcSWAT 2012.10_0.14
  LATITUDE =  27.63 LONGITUDE =  99.06
  ELEV [m] =2573.00
  RAIN_YRS =  32.00
  5.17  5.11  7.00 10.05 13.91 15.90 16.76 17.72 15.28 12.47  9.82  7.17
 -7.93 -6.06 -2.59  1.33  4.89  8.85  9.69  8.84  6.91  1.76 -4.44 -7.35
  3.26  3.28  3.41  3.47  3.76  3.23  3.31  3.27  3.43  3.14  3.05  3.01
  3.32  3.50  3.80  3.04  2.93  2.11  1.83  2.05  2.64  4.52  3.28  2.97
  54.4  83.5 128.1 143.6 174.5 199.4 214.4 193.3 195.4 165.5  43.5  37.6
  4.51  4.68  6.17  6.49  9.60  7.70  7.31  7.51  8.67 11.09  4.16  3.78
  4.53  2.56  2.91  2.79  4.05  2.62  2.66  2.81  3.01  4.13  5.12  5.46
  0.24  0.34  0.47  0.61  0.54  0.85  0.92  0.94  0.58  0.31  0.19  0.16
  0.36  0.43  0.44  0.46  0.47  0.48  0.49  0.49  0.48  0.43  0.36  0.35
 11.25 16.34 21.66 24.34 25.09 28.16 30.19 29.06 26.84 18.63  9.28  8.13
 13.14 12.49 18.99 15.45 34.94 21.09 20.23 20.18 27.43 39.13 15.66 13.90
 13.96 14.52 14.70 15.43 16.56 13.40 12.66 14.17 11.56 13.25 14.83 13.98
  0.78  0.84  0.87  0.88  0.88  0.91  0.92  0.90  0.91  0.88  0.79  0.75
  2.59  2.67  2.65  2.51  2.33  2.12  2.08  2.01  1.87  2.08  2.41  2.57
