 .Wgn file Subbasin: 1 STATION NAME:320n956e 11/5/2015 12:00:00 AM ArcSWAT 2012.10_0.14
  LATITUDE =  32.00 LONGITUDE =  95.63
  ELEV [m] =4503.00
  RAIN_YRS =  32.00
 -8.96 -6.99 -3.02  1.25  6.33 10.41 11.92 11.42  8.25  2.24 -4.24 -7.77
-19.95-18.08-14.03 -9.06 -3.61  1.33  3.22  2.77  0.46 -6.00-14.92-18.45
  2.97  3.24  3.27  3.23  3.58  3.35  2.58  2.78  2.84  3.60  2.89  3.12
  4.03  4.52  4.65  4.14  3.51  2.49  1.85  1.98  2.21  4.78  4.54  3.96
  25.6  39.3  63.8  79.9 103.2 145.3 142.5 127.5 130.8  83.7  28.4  16.7
  1.53  2.03  2.98  3.57  4.46  5.90  6.03  5.45  5.70  4.30  2.14  1.27
  2.52  1.94  2.41  2.04  1.98  1.79  2.08  2.20  1.89  2.53  3.64  3.02
  0.25  0.34  0.42  0.51  0.45  0.55  0.51  0.50  0.49  0.35  0.22  0.17
  0.37  0.41  0.41  0.43  0.43  0.45  0.44  0.44  0.43  0.44  0.35  0.33
 11.41 14.69 18.38 20.25 20.22 22.38 22.16 21.84 20.56 18.16  9.59  7.25
  3.55  4.44  7.67  7.54 10.76 15.33 13.56 14.53 12.43 11.05  7.31  3.25
 15.37 18.49 22.58 26.05 26.86 24.10 22.45 21.22 18.68 18.06 16.54 14.46
  0.65  0.67  0.66  0.65  0.63  0.64  0.66  0.66  0.71  0.71  0.65  0.61
  5.78  5.90  5.99  5.18  4.40  3.83  3.23  3.09  3.57  4.06  4.60  5.32
