 .Wgn file Subbasin: 6 STATION NAME:258n997e 11/5/2015 12:00:00 AM ArcSWAT 2012.10_0.14
  LATITUDE =  25.76 LONGITUDE =  99.69
  ELEV [m] =2693.00
  RAIN_YRS =  32.00
 10.91 12.82 16.23 19.25 20.78 20.36 20.19 21.12 18.91 16.72 13.85 11.06
 -0.79  0.09  3.04  6.45  9.86 13.18 13.46 12.58 10.93  7.96  3.16  0.20
  2.93  3.40  3.63  3.51  3.72  3.21  2.78  2.76  3.25  3.28  2.94  2.95
  2.43  2.16  2.13  1.84  2.12  1.64  1.51  1.71  2.41  2.96  2.77  2.69
  23.9  27.4  34.1  43.1 137.5 271.7 342.5 259.8 246.9 178.7  59.8  29.3
  2.67  3.17  3.52  4.14  8.99 10.50  9.52  8.25 10.67 10.53  6.34  3.10
  7.05  5.11  5.46  7.00  3.47  2.34  2.25  2.36  3.23  2.97  5.47  7.02
  0.17  0.14  0.16  0.23  0.36  0.65  0.96  0.69  0.59  0.33  0.21  0.18
  0.37  0.34  0.32  0.37  0.43  0.48  0.49  0.48  0.47  0.44  0.37  0.35
  8.19  6.56  7.47 11.00 18.31 26.81 30.13 28.66 26.06 20.16 10.22  8.69
 12.85  9.93 14.92 19.47 23.94 25.93 27.85 27.64 34.43 26.04 23.02 14.52
 14.59 17.67 20.71 21.63 19.51 14.67 14.10 16.47 13.23 12.76 13.68 13.04
  0.78  0.73  0.68  0.68  0.76  0.87  0.91  0.89  0.91  0.89  0.84  0.82
  3.22  3.69  3.97  3.77  3.04  2.61  2.42  2.22  2.08  2.26  2.51  2.73
