 .Wgn file Subbasin: 9 STATION NAME:220n1012e 11/5/2015 12:00:00 AM ArcSWAT 2012.10_0.14
  LATITUDE =  22.01 LONGITUDE = 101.25
  ELEV [m] =1208.00
  RAIN_YRS =  32.00
 20.24 23.72 28.74 31.08 29.27 27.60 27.05 27.79 27.46 25.36 22.61 19.43
  8.05  8.98 12.44 16.00 18.20 19.76 19.40 18.86 17.27 15.23 11.39  8.49
  4.80  5.41  4.99  3.68  4.26  3.13  3.37  3.39  3.42  3.55  4.11  4.16
  2.68  2.48  2.65  2.12  1.99  1.22  1.29  1.50  1.97  2.50  3.09  3.51
  35.1  27.6  23.6  46.9 210.2 343.4 388.1 360.8 223.6 136.2  67.2  36.8
  2.84  2.69  2.52  4.23 12.35 15.59 13.63 15.04 12.09  9.33  6.70  3.03
  8.22  6.43  7.35  5.58  4.85  4.26  3.08  3.54  4.02  4.48  5.99  6.55
  0.21  0.14  0.12  0.21  0.38  0.60  0.90  0.63  0.40  0.31  0.22  0.22
  0.41  0.41  0.34  0.37  0.46  0.49  0.49  0.49  0.47  0.44  0.39  0.40
 12.31  8.56  6.66  9.97 21.97 28.28 30.06 28.91 23.31 19.38 12.59 12.59
 16.98 12.96 12.88 18.04 50.92 60.71 43.25 46.77 46.99 32.10 30.01 16.39
 12.22 16.19 20.33 20.54 19.85 18.03 16.89 17.53 17.37 14.65 12.55 10.51
  0.82  0.70  0.53  0.56  0.76  0.88  0.91  0.90  0.87  0.86  0.84  0.85
  1.34  1.51  1.68  1.63  1.45  1.33  1.23  1.12  1.10  1.16  1.21  1.24
