 .Wgn file Subbasin: 2 STATION NAME:326n962e 11/5/2015 12:00:00 AM ArcSWAT 2012.10_0.14
  LATITUDE =  32.63 LONGITUDE =  96.25
  ELEV [m] =4472.00
  RAIN_YRS =  32.00
 -7.29 -5.08 -0.41  4.90 10.11 13.61 14.94 14.49 11.15  5.02 -2.23 -6.05
-19.82-17.45-12.41 -6.53 -1.41  3.04  4.68  4.13  1.55 -3.82-13.38-17.94
  3.69  3.55  3.78  3.70  3.52  3.38  2.70  3.06  3.36  3.95  3.37  3.65
  4.99  4.96  4.87  3.57  2.72  2.52  2.05  2.17  2.46  3.95  5.09  4.79
   9.9  14.1  23.1  33.1  49.5  74.3  54.6  48.5  57.4  37.9   9.1   5.2
  0.87  1.06  1.49  2.02  2.84  3.96  3.55  3.49  3.39  2.37  0.97  0.60
  4.78  3.28  3.08  2.77  2.70  2.52  2.81  3.24  2.54  3.25  4.56  5.33
  0.14  0.23  0.25  0.31  0.32  0.40  0.27  0.26  0.30  0.27  0.10  0.09
  0.32  0.30  0.34  0.35  0.37  0.41  0.36  0.33  0.39  0.37  0.27  0.25
  6.09  8.19 10.34 12.19 13.88 16.72 11.81 10.84 13.63 12.44  4.34  3.59
  4.26  2.90  4.40  5.51  6.78 10.32  8.55  8.96  8.94  8.80  3.23  2.12
 15.39 18.97 23.38 26.79 28.04 27.27 26.98 24.97 21.62 18.84 16.60 14.40
  0.60  0.62  0.57  0.52  0.49  0.55  0.59  0.58  0.62  0.61  0.56  0.55
  4.60  5.09  5.56  5.10  4.56  3.95  3.33  3.22  3.77  4.09  3.98  4.19
