 .Sol file Watershed HRU:16 Subbasin:2 HRU:8 Luse:WETL Soil: I-X-2c-3731 Slope: 0-9999 11/5/2015 12:00:00 AM ArcSWAT 2012.10_0.14
 Soil Name: I-X-2c-3731
 Soil Hydrologic Group: D
 Maximum rooting depth(m) :  360.00
 Porosity fraction from which anions are excluded: 0.500
 Crack volume potential of soil: 0.500
 Texture 1                : LOAM
 Depth                [mm]:      300.00     1000.00
 Bulk Density Moist [g/cc]:        1.40        1.50
 Ave. AW Incl. Rock Frag  :        0.07        0.07
 Ksat. (est.)      [mm/hr]:        6.24        2.85
 Organic Carbon [weight %]:        0.80        0.40
 Clay           [weight %]:       22.00       31.00
 Silt           [weight %]:       33.00       30.00
 Sand           [weight %]:       45.00       40.00
 Rock Fragments   [vol. %]:        0.00        0.00
 Soil Albedo (Moist)      :        0.10        0.23
 Erosion K                :        0.28        0.28
 Salinity (EC, Form 5)    :        0.00        0.00
 Soil pH                  :        0.00        0.00
 Soil CACO3               :        0.00        0.00
                              
