 .sdr file Watershed HRU:18 Subbasin:3 HRU:2 Luse:RICE Soil: I-Bh-U-2c-3967 Slope 0-9999 11/5/2015 12:00:00 AM ArcSWAT 2012.10_0.14
     50.00    | RE: Effective radius of drains (mm)
  15000.00    | SDRAIN: Distance bwtween two drain tubes or tiles (mm)
     10.00    | DRAIN_CO: Drainage coefficient (mm/day)
      1.00    | PC: Pump capacity (def pump cap - 1.042mm/hr or 25mm/day)
      1.00    | LATKSATF: Multiplication factor to determine conk(j1,j) from sol_k(j1,k) for HRU
