 .Sol file Watershed HRU:47 Subbasin:6 HRU:7 Luse:BARR Soil: I-Be-2c-4356 Slope: 0-9999 11/5/2015 12:00:00 AM ArcSWAT 2012.10_0.14
 Soil Name: I-Be-2c-4356
 Soil Hydrologic Group: D
 Maximum rooting depth(m) :  360.00
 Porosity fraction from which anions are excluded: 0.500
 Crack volume potential of soil: 0.500
 Texture 1                : LOAM
 Depth                [mm]:      300.00     1000.00
 Bulk Density Moist [g/cc]:        1.30        1.40
 Ave. AW Incl. Rock Frag  :        0.07        0.07
 Ksat. (est.)      [mm/hr]:        7.99        4.17
 Organic Carbon [weight %]:        1.20        0.50
 Clay           [weight %]:       23.00       29.00
 Silt           [weight %]:       37.00       35.00
 Sand           [weight %]:       40.00       35.00
 Rock Fragments   [vol. %]:        0.00        0.00
 Soil Albedo (Moist)      :        0.05        0.19
 Erosion K                :        0.27        0.27
 Salinity (EC, Form 5)    :        0.00        0.00
 Soil pH                  :        0.00        0.00
 Soil CACO3               :        0.00        0.00
                              
