 .Wgn file Subbasin: 8 STATION NAME:223n1006e 11/5/2015 12:00:00 AM ArcSWAT 2012.10_0.14
  LATITUDE =  22.32 LONGITUDE = 100.63
  ELEV [m] = 696.00
  RAIN_YRS =  32.00
 19.93 23.08 27.51 29.51 27.84 26.18 25.71 26.29 25.66 23.64 21.26 18.51
  6.99  8.06 11.66 15.05 17.19 18.92 18.63 17.99 16.25 14.22 10.38  7.58
  4.25  4.71  4.43  3.60  4.17  2.94  3.15  3.19  3.20  3.41  3.85  3.90
  2.72  2.37  2.54  1.91  1.88  1.18  1.15  1.51  2.21  2.80  3.42  3.72
  36.6  37.4  31.9  72.9 271.5 350.2 352.8 350.9 267.8 210.7 115.1  56.6
  3.12  3.79  3.22  5.73 13.52 15.04 12.62 14.53 12.21 10.99  8.82  4.34
  7.59  5.38  5.67  4.17  3.90  4.31  3.27  3.80  3.59  3.43  4.59  5.98
  0.22  0.14  0.11  0.22  0.40  0.67  0.94  0.76  0.46  0.40  0.27  0.24
  0.38  0.39  0.38  0.37  0.46  0.50  0.49  0.49  0.48  0.47  0.41  0.40
 11.50  8.19  6.66 10.41 22.75 28.88 30.47 29.81 26.16 23.09 15.53 13.91
 16.22 14.80 13.20 23.26 55.14 66.55 42.72 60.13 33.30 30.16 35.64 23.59
 12.96 16.45 19.81 19.09 18.49 16.36 14.97 15.96 16.24 13.51 11.78 10.35
  0.80  0.67  0.52  0.55  0.76  0.89  0.91  0.91  0.89  0.89  0.86  0.86
  1.32  1.52  1.71  1.59  1.43  1.32  1.23  1.17  1.14  1.14  1.15  1.17
