 .Wgn file Subbasin: 12 STATION NAME:198n1000e 11/5/2015 12:00:00 AM ArcSWAT 2012.10_0.14
  LATITUDE =  19.83 LONGITUDE = 100.00
  ELEV [m] = 386.00
  RAIN_YRS =  32.00
 27.13 30.61 34.93 36.29 31.82 29.65 28.66 28.72 29.11 28.61 27.05 25.29
 12.82 14.36 18.42 21.91 22.15 22.38 22.05 21.80 20.62 18.40 15.07 12.55
  3.87  4.25  4.11  3.58  4.16  2.74  2.63  2.68  2.84  3.02  3.63  3.73
  2.42  2.57  2.80  2.00  1.40  0.78  0.74  0.83  1.38  2.06  2.63  2.89
  23.0  14.3  21.7  66.8 288.7 311.3 369.6 343.5 305.1 166.4  58.5  25.8
  2.40  2.14  2.46  7.09 12.35 11.90 12.22 11.07 12.27  8.55  5.76  4.09
  5.91 11.30  6.27  6.90  3.65  5.26  3.89  2.94  3.42  3.54  6.55 15.18
  0.11  0.08  0.08  0.19  0.44  0.61  0.76  0.79  0.54  0.29  0.15  0.11
  0.38  0.35  0.39  0.37  0.47  0.49  0.50  0.49  0.48  0.45  0.40  0.34
  6.59  4.50  5.53  9.81 25.44 28.97 30.34 30.09 27.16 20.84  9.28  6.28
 11.04 15.25 10.79 30.65 45.63 62.47 47.82 32.96 37.87 29.62 28.95 33.92
 15.45 18.52 21.73 20.94 20.08 18.73 17.76 17.49 18.12 17.32 15.77 14.55
  0.71  0.55  0.41  0.48  0.76  0.86  0.89  0.90  0.89  0.85  0.80  0.78
  1.22  1.35  1.46  1.48  1.41  1.45  1.41  1.26  1.08  1.16  1.26  1.28
