 .Wgn file Subbasin: 10 STATION NAME:217n1000e 11/5/2015 12:00:00 AM ArcSWAT 2012.10_0.14
  LATITUDE =  21.70 LONGITUDE = 100.00
  ELEV [m] = 827.00
  RAIN_YRS =  32.00
 20.29 23.20 27.39 29.17 27.09 24.90 23.97 24.25 24.34 23.07 21.28 19.11
  5.80  7.13 11.40 14.98 17.11 18.57 18.24 17.71 15.98 13.85 10.11  6.91
  3.17  3.43  3.21  2.96  3.66  2.55  2.40  2.44  2.51  2.71  3.16  3.09
  2.98  2.64  2.50  1.96  1.75  1.09  1.14  1.48  2.17  2.66  3.24  3.53
  18.3  15.5  16.1  50.8 255.9 388.8 445.5 409.4 289.8 168.2  83.5  32.4
  2.42  2.08  2.12  4.28 14.28 13.25 13.91 15.19 13.72  9.85  8.61  3.10
 12.83  7.77  8.70  4.57  4.61  3.00  3.70  3.64  4.08  5.75  7.00  8.50
  0.14  0.10  0.09  0.20  0.42  0.68  1.00  0.67  0.48  0.39  0.23  0.17
  0.36  0.34  0.35  0.38  0.47  0.49  0.50  0.49  0.48  0.46  0.40  0.39
  7.38  5.22  4.97  9.97 23.81 29.03 30.94 30.25 26.44 23.53 13.69 10.59
 17.77 10.84 11.74 16.82 49.58 37.70 57.97 47.00 47.35 45.36 40.74 19.64
 15.23 18.95 22.06 20.72 18.79 15.65 14.50 15.24 16.52 14.72 13.67 12.49
  0.80  0.67  0.51  0.55  0.77  0.90  0.94  0.93  0.91  0.91  0.87  0.86
  1.58  1.88  2.14  1.99  1.72  1.55  1.44  1.34  1.26  1.29  1.40  1.43
