 .Wgn file Subbasin: 11 STATION NAME:208n1003e 11/5/2015 12:00:00 AM ArcSWAT 2012.10_0.14
  LATITUDE =  20.76 LONGITUDE = 100.31
  ELEV [m] = 592.00
  RAIN_YRS =  32.00
 24.29 27.50 31.85 33.64 30.58 28.47 27.65 28.31 29.09 28.15 26.15 23.57
 10.03 11.20 14.47 18.16 19.70 20.84 20.48 20.08 18.57 16.81 13.54 10.59
  3.89  4.27  4.04  3.23  3.99  3.07  3.08  3.28  3.34  3.32  3.71  3.59
  2.46  2.51  2.83  2.27  1.69  1.11  1.19  1.26  1.70  2.05  2.54  3.08
  25.1  19.5  22.6  60.6 272.4 357.9 419.7 365.5 224.5 122.7  57.0  29.1
  2.40  2.33  2.45  5.21 13.91 13.69 14.11 15.86 12.17  7.85  6.27  3.54
  5.89  5.29  5.68  4.83  4.36  4.41  3.06  3.84  4.58  4.88  6.65  8.39
  0.13  0.10  0.10  0.22  0.46  0.59  0.76  0.75  0.43  0.29  0.14  0.12
  0.38  0.35  0.33  0.39  0.47  0.49  0.49  0.49  0.47  0.44  0.39  0.33
  7.59  5.06  5.91 11.16 24.38 28.41 30.09 29.38 24.78 18.34  8.66  6.78
 12.20  7.64  9.79 21.38 58.82 58.08 45.92 46.25 45.23 32.02 25.88 20.25
 14.85 18.58 22.04 21.01 20.31 18.31 17.30 17.62 18.73 17.24 15.55 13.81
  0.75  0.63  0.49  0.54  0.78  0.88  0.91  0.90  0.86  0.83  0.78  0.78
  1.41  1.56  1.59  1.47  1.36  1.36  1.28  1.17  1.13  1.26  1.38  1.40
