 .Wgn file Subbasin: 15 STATION NAME:201n1022e 11/5/2015 12:00:00 AM ArcSWAT 2012.10_0.14
  LATITUDE =  20.14 LONGITUDE = 102.19
  ELEV [m] = 624.00
  RAIN_YRS =  32.00
 24.38 27.72 31.50 32.56 29.98 29.01 28.24 28.64 29.73 28.21 25.68 23.41
  9.92 11.68 15.66 18.79 19.90 20.71 20.42 20.08 18.69 16.44 12.47  9.39
  4.42  4.76  4.44  3.74  3.74  3.08  3.20  3.35  3.16  3.29  3.78  4.07
  3.22  3.15  2.98  2.03  1.56  0.97  0.91  1.24  1.86  2.59  3.40  3.79
  34.6  28.7  45.6 105.6 305.8 307.5 342.7 345.9 241.5 119.7  49.9  24.5
  3.09  3.23  4.65  7.66 13.94 12.18 13.08 13.42 10.73  6.89  4.70  2.94
  5.13  6.12  6.00  5.62  5.97  5.13  4.06  4.38  3.96  4.08  5.99  8.37
  0.16  0.16  0.14  0.30  0.61  0.62  0.50  0.73  0.35  0.22  0.16  0.14
  0.38  0.34  0.38  0.40  0.46  0.49  0.50  0.49  0.48  0.44  0.38  0.34
  9.25  7.34  8.34 15.22 26.78 28.44 30.38 30.19 24.84 17.03  9.88  7.72
 12.95 14.86 21.12 38.28 69.92 61.16 45.45 48.95 37.80 23.12 20.56 15.98
 13.61 16.17 18.96 19.03 18.84 17.89 17.24 17.09 17.82 16.37 14.90 13.68
  0.77  0.64  0.52  0.60  0.80  0.87  0.89  0.90  0.85  0.82  0.79  0.79
  1.20  1.35  1.58  1.58  1.43  1.43  1.38  1.20  1.16  1.29  1.31  1.26
