 .Wgn file Subbasin: 16 STATION NAME:208n1025e 11/5/2015 12:00:00 AM ArcSWAT 2012.10_0.14
  LATITUDE =  20.76 LONGITUDE = 102.50
  ELEV [m] = 549.00
  RAIN_YRS =  32.00
 23.21 26.77 31.10 32.67 30.52 29.48 28.88 29.41 30.15 28.37 25.35 22.73
  9.45 10.17 13.55 17.42 19.65 20.77 20.48 20.06 18.73 16.70 12.83  9.57
  4.75  5.23  4.82  3.81  4.02  3.38  3.50  3.46  3.25  3.43  3.98  4.11
  3.20  3.27  3.12  2.26  1.74  1.06  1.08  1.37  1.74  2.37  3.18  3.68
  31.5  23.3  33.3  73.8 232.6 262.9 315.1 305.9 178.6  90.0  41.7  20.4
  2.80  2.61  3.52  5.47 10.64 12.19 14.68 15.19 10.24  7.06  4.74  2.50
  5.51  6.62  6.42  5.50  3.86  3.56  3.79  4.86  4.33  7.22  7.85  9.07
  0.18  0.14  0.13  0.26  0.54  0.55  0.67  0.78  0.34  0.23  0.17  0.14
  0.40  0.37  0.35  0.41  0.46  0.48  0.49  0.49  0.47  0.43  0.36  0.33
 10.03  7.00  7.09 13.44 25.31 27.38 29.66 28.88 22.66 15.56  9.22  7.41
 12.11 13.24 16.00 24.41 38.23 36.94 52.22 56.50 33.91 38.66 25.54 14.53
 13.32 16.90 20.45 20.31 19.26 18.13 17.41 17.49 17.96 16.12 14.45 12.98
  0.79  0.69  0.56  0.62  0.79  0.86  0.88  0.88  0.83  0.80  0.78  0.79
  1.30  1.40  1.53  1.49  1.41  1.44  1.38  1.20  1.19  1.36  1.39  1.35
