 .Wgn file Subbasin: 19 STATION NAME:176n1022e 11/5/2015 12:00:00 AM ArcSWAT 2012.10_0.14
  LATITUDE =  17.64 LONGITUDE = 102.19
  ELEV [m] = 223.00
  RAIN_YRS =  32.00
 28.08 31.92 35.92 36.58 32.83 31.42 30.33 29.45 28.77 27.83 27.18 26.50
 14.82 17.68 20.98 23.47 23.64 23.44 22.81 22.71 21.79 19.43 16.07 13.77
  4.99  5.76  5.74  4.95  4.32  3.34  2.89  2.28  2.19  2.44  3.44  4.03
  3.29  3.39  2.96  1.88  1.36  0.84  0.80  0.71  1.35  2.38  3.33  3.63
  23.7  28.6  70.6 206.1 595.7 527.1 536.3 574.6 523.4 282.3  62.9  13.1
  2.72  3.56  8.68 15.15 20.17 15.82 13.65 14.25 17.30 13.60  5.57  1.87
  5.22  6.06  8.68  5.17  2.54  3.11  2.32  2.35  2.55  3.16  3.93  7.28
  0.08  0.13  0.16  0.35  0.52  0.44  0.55  1.00  0.49  0.25  0.16  0.08
  0.38  0.34  0.37  0.42  0.48  0.49  0.48  0.50  0.48  0.47  0.39  0.30
  5.41  6.06  9.00 17.22 27.16 27.47 29.41 30.84 27.50 20.75  9.41  4.03
 10.36 13.80 44.93 65.47 63.20 60.09 55.32 45.89 55.61 45.22 15.85  8.84
 15.70 16.85 18.28 17.09 17.77 18.04 17.79 17.29 17.69 17.39 16.69 15.92
  0.65  0.54  0.47  0.56  0.76  0.82  0.86  0.89  0.91  0.87  0.80  0.71
  1.64  1.85  1.90  1.73  1.43  1.36  1.33  1.37  1.25  1.29  1.30  1.44
