 .Wgn file Subbasin: 18 STATION NAME:183n1012e 11/5/2015 12:00:00 AM ArcSWAT 2012.10_0.14
  LATITUDE =  18.27 LONGITUDE = 101.25
  ELEV [m] = 415.00
  RAIN_YRS =  32.00
 26.81 30.30 33.52 34.17 30.28 29.32 28.45 28.09 28.49 28.32 27.52 26.05
 12.64 14.98 18.83 21.32 21.65 21.84 21.43 21.43 20.17 18.14 14.76 11.83
  4.33  4.54  4.40  3.91  3.80  2.90  2.72  2.64  2.97  2.96  3.12  3.37
  2.70  2.61  2.54  1.85  1.26  0.80  0.82  0.82  1.64  2.21  2.94  3.13
  18.0  16.7  51.2 164.1 435.7 322.3 342.1 334.2 350.5 172.2  42.1  12.3
  2.06  2.19  6.93 14.96 18.12 13.36 15.34 11.35 15.69  9.05  4.07  2.47
  5.70  6.26 14.12  6.31  3.49  5.34  5.87  3.42  4.41  3.42  6.16 16.73
  0.07  0.09  0.13  0.28  0.56  0.54  0.77  0.97  0.55  0.29  0.16  0.07
  0.39  0.36  0.33  0.41  0.47  0.48  0.49  0.50  0.48  0.45  0.38  0.29
  5.25  4.38  6.78 14.66 27.00 26.78 29.38 30.00 27.72 20.00  8.97  3.34
  8.10  9.62 56.37 61.90 55.76 67.98 72.16 45.75 64.99 28.57 19.68 21.30
 16.12 17.99 20.33 19.72 18.81 18.48 17.81 17.04 17.50 17.55 17.05 16.60
  0.72  0.58  0.49  0.59  0.82  0.86  0.89  0.90  0.90  0.85  0.80  0.76
  1.53  1.69  1.78  1.59  1.36  1.59  1.63  1.57  1.23  1.31  1.38  1.45
