 .Wgn file Subbasin: 14 STATION NAME:198n1016e 11/5/2015 12:00:00 AM ArcSWAT 2012.10_0.14
  LATITUDE =  19.83 LONGITUDE = 101.56
  ELEV [m] = 367.00
  RAIN_YRS =  32.00
 24.70 27.77 31.28 32.03 29.16 28.28 27.25 27.49 28.79 27.59 25.60 23.65
 10.43 12.17 16.49 19.29 20.14 20.75 20.42 20.21 18.81 16.60 12.96 10.02
  4.18  4.40  4.17  3.61  3.58  2.93  2.98  3.19  3.13  3.15  3.67  3.93
  3.18  3.11  2.74  1.81  1.42  0.86  0.85  1.05  1.80  2.49  3.10  3.57
  27.9  24.4  40.2 107.2 272.2 226.0 289.8 300.2 224.3 123.6  54.2  25.5
  2.48  2.95  4.00  9.75 14.33 10.84 13.42 15.09 10.76  8.33  6.14  3.16
  4.20  6.82  6.14  9.53  4.83  5.31  4.21  6.42  4.15  6.89  9.06  9.08
  0.14  0.14  0.13  0.28  0.51  0.63  0.86  0.78  0.42  0.27  0.19  0.14
  0.38  0.34  0.39  0.42  0.47  0.49  0.49  0.49  0.48  0.44  0.38  0.35
  8.13  6.53  7.84 15.09 26.69 28.00 30.13 29.88 26.00 19.00 10.16  7.78
  7.27 13.09 18.29 66.17 48.96 48.99 46.97 78.74 35.27 43.06 31.99 18.02
 13.88 16.62 19.44 19.80 19.23 17.78 16.66 16.32 17.93 16.76 15.22 13.89
  0.76  0.64  0.52  0.61  0.81  0.87  0.90  0.91  0.87  0.83  0.79  0.78
  1.30  1.45  1.65  1.62  1.48  1.48  1.43  1.29  1.20  1.35  1.43  1.38
