 .Wgn file Subbasin: 17 STATION NAME:189n1016e 11/5/2015 12:00:00 AM ArcSWAT 2012.10_0.14
  LATITUDE =  18.89 LONGITUDE = 101.56
  ELEV [m] = 600.00
  RAIN_YRS =  32.00
 25.11 28.05 31.38 31.95 28.42 27.75 27.04 26.86 27.81 27.60 26.73 24.92
  9.98 11.82 15.05 18.48 20.03 20.76 20.39 20.44 19.09 16.84 13.24 10.05
  3.80  4.32  4.36  3.89  3.65  3.07  2.90  2.84  3.07  3.08  3.08  3.19
  3.17  2.98  2.78  1.93  1.46  1.02  1.09  1.08  1.70  2.38  3.40  3.61
  25.1  27.6  66.4 207.9 480.7 341.0 372.7 386.4 365.1 203.9  69.9  24.4
  2.44  3.01  6.17 13.62 17.64 11.97 13.14 12.27 14.90  9.69  5.61  2.93
  5.24  5.32  6.10  4.77  3.28  3.61  4.63  3.30  4.21  5.76  7.26  9.19
  0.12  0.15  0.16  0.33  0.57  0.62  0.78  1.00  0.56  0.35  0.21  0.12
  0.37  0.33  0.38  0.44  0.49  0.48  0.50  0.50  0.49  0.47  0.39  0.37
  7.00  6.47  9.06 19.00 28.56 28.34 30.44 30.66 28.44 23.19 11.94  6.47
  9.42 10.92 31.88 51.98 51.69 46.31 55.97 40.47 49.42 54.48 32.74 19.37
 15.29 17.34 19.59 19.00 17.86 16.32 15.84 15.35 16.86 16.42 15.84 15.00
  0.77  0.67  0.58  0.67  0.86  0.90  0.92  0.93  0.91  0.86  0.81  0.78
  1.22  1.38  1.45  1.29  1.16  1.22  1.21  1.16  1.04  1.13  1.14  1.16
