 .Sol file Watershed HRU:137 Subbasin:18 HRU:1 Luse:IRRC Soil: Ao107-2bc-4267 Slope: 0-9999 11/5/2015 12:00:00 AM ArcSWAT 2012.10_0.14
 Soil Name: Ao107-2bc-4267
 Soil Hydrologic Group: C
 Maximum rooting depth(m) :  890.00
 Porosity fraction from which anions are excluded: 0.500
 Crack volume potential of soil: 0.500
 Texture 1                : SANDY_CLAY_LOAM
 Depth                [mm]:      300.00     1000.00
 Bulk Density Moist [g/cc]:        1.30        1.40
 Ave. AW Incl. Rock Frag  :        0.16        0.16
 Ksat. (est.)      [mm/hr]:       12.47        5.38
 Organic Carbon [weight %]:        1.60        0.60
 Clay           [weight %]:       23.00       36.00
 Silt           [weight %]:       26.00       23.00
 Sand           [weight %]:       51.00       40.00
 Rock Fragments   [vol. %]:        0.00        0.00
 Soil Albedo (Moist)      :        0.02        0.15
 Erosion K                :        0.26        0.26
 Salinity (EC, Form 5)    :        0.00        0.00
 Soil pH                  :        0.00        0.00
 Soil CACO3               :        0.00        0.00
                              
