 .Wgn file Subbasin: 13 STATION NAME:205n1012e 11/5/2015 12:00:00 AM ArcSWAT 2012.10_0.14
  LATITUDE =  20.45 LONGITUDE = 101.25
  ELEV [m] = 669.00
  RAIN_YRS =  32.00
 23.31 26.45 30.46 31.79 28.52 27.15 26.11 26.62 27.75 26.60 24.64 22.43
  8.77  9.90 13.22 17.24 19.37 20.47 20.21 19.87 18.32 16.24 12.59  9.40
  4.22  4.50  4.21  3.59  3.92  2.99  2.91  3.25  3.29  3.29  3.85  3.96
  3.07  2.98  3.23  2.35  1.70  1.03  1.04  1.32  1.87  2.34  2.93  3.45
  33.6  25.2  41.6 116.1 362.5 351.2 397.7 405.7 304.2 175.3  71.2  32.6
  2.98  2.79  4.27  9.20 15.73 14.29 15.89 16.51 13.93  9.74  6.82  3.88
  5.91  5.91  7.60  8.02  4.41  4.22  4.39  4.25  4.58  5.05  7.18 11.65
  0.17  0.12  0.13  0.27  0.50  0.69  0.83  0.80  0.40  0.31  0.18  0.16
  0.38  0.38  0.38  0.43  0.47  0.49  0.50  0.50  0.48  0.44  0.40  0.37
  9.31  6.41  7.75 15.06 27.09 28.78 30.63 30.38 26.13 20.44 11.59  9.09
 15.45 12.85 25.90 55.16 66.02 48.86 57.17 56.91 54.00 41.79 37.13 28.54
 14.25 18.25 22.00 21.49 18.36 15.68 14.46 14.54 16.74 15.45 14.38 13.16
  0.79  0.67  0.54  0.61  0.83  0.90  0.93  0.93  0.88  0.84  0.80  0.81
  1.40  1.56  1.70  1.63  1.45  1.47  1.42  1.26  1.21  1.39  1.47  1.44
