 .Sol file Watershed HRU:185 Subbasin:24 HRU:1 Luse:IRRC Soil: Af59-1-2a-4452 Slope: 0-9999 11/5/2015 12:00:00 AM ArcSWAT 2012.10_0.14
 Soil Name: Af59-1-2a-4452
 Soil Hydrologic Group: C
 Maximum rooting depth(m) : 1000.00
 Porosity fraction from which anions are excluded: 0.500
 Crack volume potential of soil: 0.500
 Texture 1                : SANDY_LOAM
 Depth                [mm]:      300.00     1000.00
 Bulk Density Moist [g/cc]:        1.50        1.50
 Ave. AW Incl. Rock Frag  :        0.14        0.14
 Ksat. (est.)      [mm/hr]:       11.46        6.09
 Organic Carbon [weight %]:        1.10        0.30
 Clay           [weight %]:       19.00       30.00
 Silt           [weight %]:       17.00       17.00
 Sand           [weight %]:       64.00       54.00
 Rock Fragments   [vol. %]:        0.00        0.00
 Soil Albedo (Moist)      :        0.06        0.27
 Erosion K                :        0.24        0.24
 Salinity (EC, Form 5)    :        0.00        0.00
 Soil pH                  :        0.00        0.00
 Soil CACO3               :        0.00        0.00
                              
