 .Wgn file Subbasin: 29 STATION NAME:151n1056e 11/5/2015 12:00:00 AM ArcSWAT 2012.10_0.14
  LATITUDE =  15.14 LONGITUDE = 105.63
  ELEV [m] = 102.00
  RAIN_YRS =  32.00
 30.46 33.50 35.97 35.53 32.34 30.50 29.55 28.62 28.78 28.96 28.28 27.87
 17.69 19.94 22.70 24.02 23.83 23.66 23.24 23.03 22.44 21.04 19.29 17.56
  3.28  3.39  3.72  4.22  3.71  3.35  2.69  2.14  2.13  2.35  3.03  3.31
  2.40  2.83  2.56  1.61  1.10  0.96  0.71  0.63  0.91  1.55  2.07  2.27
   7.4  24.6  61.6 234.2 535.0 614.1 634.8 751.9 573.8 243.9  64.3  10.5
  1.45  5.19  7.42 16.81 25.09 20.41 16.70 20.59 19.43 12.62  7.00  1.71
 12.79 14.10  8.85  4.63  4.12  2.16  2.39  2.51  2.66  3.50 12.61 10.40
  0.06  0.08  0.17  0.37  0.52  0.49  0.65  1.00  0.80  0.32  0.20  0.08
  0.24  0.33  0.37  0.42  0.47  0.49  0.49  0.49  0.50  0.46  0.38  0.33
  2.59  4.03  9.06 18.13 26.56 27.06 29.94 30.69 29.38 22.88 10.66  3.91
 10.47 35.28 46.10 54.79 90.31 46.41 50.12 59.99 51.20 37.22 53.87  9.55
 18.67 19.59 19.43 18.18 18.79 18.70 19.26 18.12 17.56 18.16 17.13 16.99
  0.64  0.55  0.51  0.62  0.77  0.83  0.86  0.90  0.91  0.86  0.80  0.74
  2.79  2.80  2.64  2.30  2.12  2.19  2.17  2.07  1.64  2.14  2.94  3.32
