 .Wgn file Subbasin: 28 STATION NAME:151n1031e 11/5/2015 12:00:00 AM ArcSWAT 2012.10_0.14
  LATITUDE =  15.14 LONGITUDE = 103.13
  ELEV [m] = 172.00
  RAIN_YRS =  32.00
 30.51 33.58 36.01 36.08 33.79 32.69 31.92 30.81 29.83 28.79 28.30 28.41
 18.83 21.63 24.13 25.46 25.16 24.73 24.15 23.82 23.37 21.56 19.63 18.10
  3.56  3.69  3.88  3.97  3.34  3.12  2.76  2.46  2.12  2.33  3.20  3.52
  3.00  3.29  2.69  1.77  1.30  1.03  0.83  0.70  0.88  1.69  2.20  2.65
  12.2  25.8  76.5 220.4 361.8 220.8 227.2 316.0 403.4 236.3  71.0  13.2
  2.48  4.81  9.81 16.74 18.03 11.75  9.01 13.39 13.95 10.02  6.35  2.19
 15.78 10.29  9.19  5.96  4.13  5.80  3.56  5.79  3.73  3.29  9.00  9.77
  0.06  0.10  0.17  0.36  0.46  0.42  0.52  0.85  0.70  0.28  0.19  0.07
  0.31  0.33  0.37  0.41  0.47  0.47  0.47  0.49  0.49  0.47  0.40  0.27
  3.22  4.56  9.47 17.00 24.91 23.81 26.41 29.28 28.75 23.31 11.06  3.41
 20.49 27.48 49.88 89.70 68.26 56.41 28.54 63.65 44.52 34.33 43.57 13.58
 17.55 17.93 18.37 17.09 18.81 19.35 19.90 19.12 18.51 17.75 16.52 16.46
  0.57  0.50  0.49  0.57  0.70  0.74  0.77  0.82  0.87  0.85  0.76  0.64
  3.20  3.04  2.86  2.47  2.50  2.82  2.81  2.70  1.99  2.33  3.16  3.65
