 .Sol file Watershed HRU:215 Subbasin:27 HRU:7 Luse:BARR Soil: Ag17-1-2a-4265 Slope: 0-9999 11/5/2015 12:00:00 AM ArcSWAT 2012.10_0.14
 Soil Name: Ag17-1-2a-4265
 Soil Hydrologic Group: C
 Maximum rooting depth(m) : 1000.00
 Porosity fraction from which anions are excluded: 0.500
 Crack volume potential of soil: 0.500
 Texture 1                : SANDY_LOAM
 Depth                [mm]:      300.00     1000.00
 Bulk Density Moist [g/cc]:        1.30        1.40
 Ave. AW Incl. Rock Frag  :        0.17        0.17
 Ksat. (est.)      [mm/hr]:       19.29        6.52
 Organic Carbon [weight %]:        1.60        0.40
 Clay           [weight %]:       19.00       33.00
 Silt           [weight %]:       23.00       21.00
 Sand           [weight %]:       58.00       47.00
 Rock Fragments   [vol. %]:        0.00        0.00
 Soil Albedo (Moist)      :        0.02        0.23
 Erosion K                :        0.27        0.27
 Salinity (EC, Form 5)    :        0.00        0.00
 Soil pH                  :        0.00        0.00
 Soil CACO3               :        0.00        0.00
                              
