 .Wgn file Subbasin: 24 STATION NAME:158n1056e 11/5/2015 12:00:00 AM ArcSWAT 2012.10_0.14
  LATITUDE =  15.77 LONGITUDE = 105.63
  ELEV [m] = 269.00
  RAIN_YRS =  32.00
 29.42 33.08 36.13 35.17 31.97 30.41 29.54 28.66 28.94 28.79 27.47 26.44
 17.20 19.17 21.78 23.40 23.49 23.62 23.23 23.03 22.24 20.78 19.14 17.40
  4.38  4.73  4.70  4.37  3.74  3.35  2.84  2.29  2.31  2.62  3.79  4.20
  2.12  2.67  2.76  1.85  1.26  1.06  0.76  0.64  1.03  1.53  1.98  2.14
   9.0  31.6  70.7 240.1 532.6 545.4 536.9 631.6 463.3 197.8  52.4   9.2
  1.83  5.30  8.47 16.45 21.25 19.43 14.56 19.40 18.38 11.31  4.92  1.44
 11.69 11.70  9.79  4.54  3.14  3.16  3.03  3.29  4.28  4.46  5.95  9.31
  0.06  0.08  0.18  0.39  0.53  0.50  0.76  0.88  0.67  0.30  0.18  0.08
  0.22  0.34  0.38  0.44  0.48  0.49  0.49  0.50  0.48  0.47  0.37  0.33
  2.44  4.47  9.44 18.88 26.88 27.38 29.94 30.47 28.47 21.53 10.34  4.06
 12.50 38.04 55.45 51.28 68.01 71.10 58.41 62.75 75.15 44.07 20.67  8.12
 17.48 18.43 19.04 18.07 18.73 19.10 19.64 18.46 17.84 17.93 15.41 14.62
  0.68  0.59  0.54  0.64  0.79  0.83  0.87  0.90  0.90  0.86  0.80  0.76
  2.88  2.68  2.43  2.06  1.91  2.13  2.15  2.03  1.56  2.18  3.01  3.36
