 .Wgn file Subbasin: 22 STATION NAME:176n1047e 11/5/2015 12:00:00 AM ArcSWAT 2012.10_0.14
  LATITUDE =  17.64 LONGITUDE = 104.69
  ELEV [m] = 148.00
  RAIN_YRS =  32.00
 29.02 31.97 35.13 36.03 32.39 30.50 29.48 28.83 29.68 29.23 28.22 27.24
 14.37 16.57 19.32 22.19 23.07 23.60 23.10 22.91 22.09 20.18 17.39 14.57
  4.66  5.43  4.94  4.42  3.99  3.26  2.98  2.43  2.44  2.78  3.56  4.13
  2.91  3.19  3.20  2.09  1.53  0.99  0.87  0.71  1.19  2.10  2.80  3.14
   5.0  18.9  33.0 110.2 372.2 428.6 476.0 521.6 319.7  94.5  19.1   4.2
  0.94  2.90  5.40 10.21 19.31 17.65 19.45 21.01 19.45  8.63  2.72  1.08
  7.87  7.05  9.23  5.29  3.91  2.57  3.23  3.28  3.51  5.28  7.71 12.16
  0.05  0.08  0.11  0.25  0.48  0.38  0.55  0.65  0.48  0.26  0.09  0.04
  0.22  0.31  0.27  0.36  0.46  0.48  0.47  0.49  0.45  0.40  0.30  0.16
  1.72  3.88  4.59 11.56 23.69 24.88 26.56 28.22 22.81 13.22  4.22  1.34
  4.55 12.69 29.86 38.32 71.95 52.06 72.24 69.61 59.43 29.24 13.63  6.40
 17.94 19.30 21.66 21.17 20.35 20.45 20.13 18.65 19.91 19.54 18.25 17.16
  0.66  0.61  0.55  0.61  0.76  0.82  0.86  0.89  0.85  0.79  0.72  0.68
  2.60  2.62  2.53  2.12  1.71  1.58  1.51  1.48  1.58  2.04  2.38  2.60
