 .Sol file Watershed HRU:228 Subbasin:29 HRU:4 Luse:AGRL Soil: Ao90-2-3c-4284 Slope: 0-9999 11/5/2015 12:00:00 AM ArcSWAT 2012.10_0.14
 Soil Name: Ao90-2-3c-4284
 Soil Hydrologic Group: D
 Maximum rooting depth(m) :  420.00
 Porosity fraction from which anions are excluded: 0.500
 Crack volume potential of soil: 0.500
 Texture 1                : CLAY_LOAM
 Depth                [mm]:      300.00     1000.00
 Bulk Density Moist [g/cc]:        1.30        1.30
 Ave. AW Incl. Rock Frag  :        0.07        0.07
 Ksat. (est.)      [mm/hr]:        7.27        7.91
 Organic Carbon [weight %]:        2.20        0.90
 Clay           [weight %]:       30.00       37.00
 Silt           [weight %]:       30.00       27.00
 Sand           [weight %]:       39.00       35.00
 Rock Fragments   [vol. %]:        0.00        0.00
 Soil Albedo (Moist)      :        0.01        0.09
 Erosion K                :        0.27        0.27
 Salinity (EC, Form 5)    :        0.00        0.00
 Soil pH                  :        0.00        0.00
 Soil CACO3               :        0.00        0.00
                              
