 .Wgn file Subbasin: 27 STATION NAME:151n1050e 11/5/2015 12:00:00 AM ArcSWAT 2012.10_0.14
  LATITUDE =  15.14 LONGITUDE = 105.00
  ELEV [m] = 126.00
  RAIN_YRS =  32.00
 30.76 33.71 36.11 35.96 33.31 31.83 31.00 29.92 29.45 29.12 28.45 28.14
 18.40 20.91 23.68 24.95 24.71 24.45 23.94 23.56 23.03 21.52 19.74 18.02
  3.42  3.58  3.88  4.13  3.50  3.33  2.77  2.30  2.14  2.38  3.25  3.61
  2.61  3.10  2.80  1.80  1.26  1.06  0.77  0.62  0.89  1.62  2.09  2.34
   8.5  29.2  68.7 230.3 421.0 332.0 304.2 380.2 432.3 232.2  72.8  12.0
  1.64  4.60  8.09 17.40 19.74 14.24  9.71 15.59 16.61 11.07  6.44  2.20
  8.93  9.03  7.47  5.40  3.74  3.57  3.69  5.46  4.41  4.04  6.39 10.87
  0.06  0.09  0.17  0.42  0.47  0.50  0.60  0.88  0.68  0.28  0.15  0.07
  0.19  0.30  0.40  0.41  0.47  0.48  0.48  0.50  0.49  0.46  0.40  0.30
  2.25  4.16  9.50 18.25 25.94 26.00 28.56 30.19 28.81 22.75  9.75  3.34
  8.81 28.46 38.23 64.90 60.96 45.08 44.64 63.38 57.56 44.90 33.57 13.19
 18.69 19.24 19.55 18.48 19.34 19.33 20.38 19.55 18.30 18.05 16.99 16.78
  0.61  0.53  0.50  0.59  0.73  0.78  0.82  0.86  0.89  0.85  0.78  0.71
  3.16  2.98  2.73  2.36  2.25  2.46  2.47  2.38  1.79  2.36  3.35  3.79
