 .Wgn file Subbasin: 21 STATION NAME:186n1034e 11/5/2015 12:00:00 AM ArcSWAT 2012.10_0.14
  LATITUDE =  18.58 LONGITUDE = 103.44
  ELEV [m] = 970.00
  RAIN_YRS =  32.00
 25.89 28.32 31.58 32.58 29.61 28.29 27.61 27.63 29.03 28.80 27.44 25.58
 13.14 14.95 17.44 19.80 20.74 21.28 20.97 20.92 19.87 18.29 15.68 13.11
  3.59  4.45  4.34  3.71  3.65  3.09  2.86  2.70  2.88  2.63  2.81  3.04
  2.61  2.69  2.56  1.84  1.34  0.97  1.02  0.99  1.20  1.83  2.55  2.90
  13.6  23.4  48.6 149.6 496.1 492.7 531.3 550.9 313.1 118.8  28.2   7.8
  2.16  5.10  5.95  9.94 21.34 17.97 18.26 20.13 15.49 10.12  3.23  1.59
  7.44 18.90  8.02  4.88  3.55  2.94  3.46  3.80  3.68  6.73  5.79 12.05
  0.08  0.10  0.14  0.37  0.46  0.37  0.70  0.94  0.35  0.23  0.12  0.04
  0.29  0.31  0.37  0.43  0.48  0.49  0.48  0.50  0.48  0.42  0.34  0.32
  3.44  4.84  7.94 17.34 26.84 27.97 29.63 30.47 25.13 15.25  5.84  2.16
  8.91 45.26 30.95 35.39 75.22 52.15 70.96 75.96 57.30 41.89 13.10 11.27
 16.72 18.76 21.82 22.02 20.16 19.06 18.70 17.80 19.10 19.34 18.16 17.04
  0.66  0.61  0.56  0.65  0.82  0.88  0.90  0.92  0.86  0.78  0.71  0.67
  1.84  1.83  1.74  1.42  1.20  1.14  1.12  1.15  1.39  1.79  1.95  1.98
