 .Wgn file Subbasin: 20 STATION NAME:189n1025e 11/5/2015 12:00:00 AM ArcSWAT 2012.10_0.14
  LATITUDE =  18.89 LONGITUDE = 102.50
  ELEV [m] = 394.00
  RAIN_YRS =  32.00
 24.95 27.47 30.49 31.10 28.19 27.14 26.41 26.46 27.79 27.76 26.83 24.80
 10.84 12.14 14.98 17.97 19.38 20.07 19.73 19.92 19.14 17.47 14.55 11.32
  3.06  3.65  3.86  3.52  3.33  2.88  2.73  2.70  3.01  2.85  2.67  2.74
  2.83  2.96  3.03  2.08  1.51  1.19  1.27  1.21  1.34  1.72  2.82  3.40
  13.6  16.3  43.4 149.8 471.0 576.8 653.9 734.5 463.8 192.1  52.3  14.6
  1.84  2.40  4.61  8.74 18.19 17.90 17.35 21.61 16.60  9.62  4.18  2.00
  7.55  8.27  7.61  3.35  3.39  2.62  2.15  2.76  2.29  3.56  4.24  9.10
  0.09  0.11  0.14  0.33  0.51  0.58  0.58  1.00  0.45  0.27  0.19  0.09
  0.29  0.28  0.34  0.41  0.48  0.49  0.49  0.50  0.49  0.46  0.38  0.32
  4.22  4.50  7.53 16.72 27.22 28.38 30.03 30.84 27.63 20.41 10.50  4.72
  9.48 13.30 27.12 27.39 52.22 54.80 49.83 72.32 38.36 35.60 13.29 11.85
 16.71 19.76 22.73 22.95 19.76 18.20 17.44 16.30 16.77 15.70 15.81 15.25
  0.73  0.66  0.59  0.67  0.85  0.90  0.92  0.93  0.89  0.83  0.76  0.73
  1.48  1.66  1.73  1.49  1.22  1.16  1.13  1.10  1.15  1.31  1.37  1.40
