 .Wgn file Subbasin: 26 STATION NAME:164n1028e 11/5/2015 12:00:00 AM ArcSWAT 2012.10_0.14
  LATITUDE =  16.39 LONGITUDE = 102.81
  ELEV [m] = 170.00
  RAIN_YRS =  32.00
 29.50 32.76 35.71 36.34 33.59 32.72 31.95 30.85 29.97 29.07 28.48 27.88
 17.52 20.41 23.43 25.32 25.08 24.83 24.27 23.82 23.19 21.39 19.12 17.02
  3.96  4.46  4.66  3.98  3.56  3.20  2.96  2.48  2.24  2.51  3.32  3.57
  3.20  3.66  3.21  2.03  1.53  1.13  0.92  0.68  0.95  1.83  2.60  3.05
  14.1  30.3  69.6 217.8 411.1 280.6 329.4 408.7 430.6 247.9  59.9  11.4
  1.91  5.96  7.72 16.60 18.53 10.52 12.69 13.07 14.35 12.41  5.74  2.18
  6.55 15.54  6.79  4.23  3.56  3.08  3.86  3.15  2.96  4.49  5.23  9.88
  0.08  0.11  0.14  0.33  0.55  0.40  0.54  0.76  0.54  0.31  0.16  0.05
  0.31  0.34  0.38  0.42  0.47  0.49  0.48  0.49  0.49  0.45  0.37  0.30
  3.88  5.16  8.66 16.13 25.59 25.47 27.47 29.59 28.38 21.16  8.44  2.75
  7.91 45.07 34.50 61.36 58.08 35.46 39.59 47.41 48.77 48.73 23.50 11.87
 16.50 17.45 18.63 17.19 17.85 18.85 19.03 18.88 18.49 18.11 16.84 16.31
  0.57  0.50  0.46  0.54  0.69  0.73  0.76  0.82  0.85  0.81  0.70  0.62
  2.97  2.94  2.88  2.59  2.45  2.70  2.65  2.47  1.87  2.36  2.96  3.38
