 .Wgn file Subbasin: 23 STATION NAME:164n1059e 11/5/2015 12:00:00 AM ArcSWAT 2012.10_0.14
  LATITUDE =  16.39 LONGITUDE = 105.94
  ELEV [m] = 196.00
  RAIN_YRS =  32.00
 27.11 30.30 33.60 33.93 31.20 29.75 28.98 28.46 29.82 29.50 27.00 25.03
 16.96 18.37 20.39 22.42 22.86 23.11 22.75 22.70 22.04 20.84 19.10 17.21
  4.71  5.14  4.75  4.10  3.68  3.43  3.17  3.05  3.18  3.47  4.30  4.55
  2.18  2.28  2.49  1.69  1.19  0.94  0.79  0.64  0.98  1.61  2.11  2.32
   9.2  26.1  47.0 162.4 392.2 468.4 514.6 616.0 393.8 143.1  49.1  17.7
  1.34  3.89  5.54 13.18 19.33 19.44 16.54 21.75 20.55  9.66  4.53  1.38
  9.68  8.86  8.06  5.34  3.77  3.34  2.40  4.05  4.34  5.32  7.86  6.11
  0.11  0.10  0.16  0.38  0.47  0.56  0.62  0.81  0.49  0.31  0.23  0.19
  0.23  0.34  0.35  0.39  0.47  0.47  0.49  0.50  0.48  0.43  0.38  0.38
  4.69  5.28  7.94 15.88 25.41 26.28 29.34 30.19 25.81 17.78 12.34 10.28
  8.10 20.12 27.60 45.63 60.14 62.23 45.34 85.38 76.84 42.67 23.94  6.42
 15.80 18.04 19.95 19.89 19.64 19.11 18.70 17.06 17.94 17.16 13.64 12.32
  0.73  0.67  0.60  0.67  0.81  0.86  0.89  0.91  0.87  0.81  0.79  0.78
  2.48  2.35  2.14  1.75  1.46  1.58  1.60  1.53  1.40  2.03  2.46  2.59
