 .Sol file Watershed HRU:249 Subbasin:32 HRU:1 Luse:IRRC Soil: Af61-1-2a-4261 Slope: 0-9999 11/5/2015 12:00:00 AM ArcSWAT 2012.10_0.14
 Soil Name: Af61-1-2a-4261
 Soil Hydrologic Group: D
 Maximum rooting depth(m) : 1000.00
 Porosity fraction from which anions are excluded: 0.500
 Crack volume potential of soil: 0.500
 Texture 1                : SANDY_CLAY_LOAM
 Depth                [mm]:      300.00     1000.00
 Bulk Density Moist [g/cc]:        1.50        1.50
 Ave. AW Incl. Rock Frag  :        0.16        0.16
 Ksat. (est.)      [mm/hr]:        8.03        4.27
 Organic Carbon [weight %]:        1.20        0.30
 Clay           [weight %]:       20.00       32.00
 Silt           [weight %]:       22.00       21.00
 Sand           [weight %]:       57.00       48.00
 Rock Fragments   [vol. %]:        0.00        0.00
 Soil Albedo (Moist)      :        0.05        0.27
 Erosion K                :        0.25        0.25
 Salinity (EC, Form 5)    :        0.00        0.00
 Soil pH                  :        0.00        0.00
 Soil CACO3               :        0.00        0.00
                              
