 .Wgn file Subbasin: 37 STATION NAME:130n1078e 11/5/2015 12:00:00 AM ArcSWAT 2012.10_0.14
  LATITUDE =  12.96 LONGITUDE = 107.81
  ELEV [m] = 249.00
  RAIN_YRS =  32.00
 28.51 32.24 35.18 36.60 34.52 31.92 31.33 30.53 31.10 30.71 28.48 26.70
 18.22 19.06 20.51 22.06 22.28 21.96 21.58 21.65 21.14 20.43 19.80 18.56
  3.48  3.91  3.38  2.97  3.74  3.71  3.48  3.68  3.35  3.12  3.49  3.26
  1.82  1.66  1.77  1.33  1.08  0.95  0.93  0.86  1.02  1.26  1.67  1.97
   6.2   3.8  11.9  63.6 210.8 271.3 236.9 296.1 297.4 181.6  82.5  26.2
  0.85  0.71  2.26  6.87 11.65 15.76  8.41 12.61 13.85 11.71  8.61  2.99
  9.14  9.60  9.89  7.30  5.51  8.28  3.19  4.02  5.70  5.17  6.42 10.38
  0.09  0.06  0.05  0.16  0.39  0.57  0.81  0.71  0.56  0.39  0.28  0.18
  0.30  0.18  0.30  0.38  0.45  0.48  0.47  0.49  0.48  0.42  0.38  0.38
  3.97  2.13  2.56  8.81 22.34 25.50 28.53 28.34 27.06 20.09 13.09 10.19
  5.15  4.05 12.04 32.62 43.42102.94 26.96 47.22 63.59 44.29 36.74 16.79
 17.57 21.28 23.03 21.17 20.19 20.19 20.38 19.36 19.31 18.61 15.45 13.84
  0.70  0.60  0.54  0.57  0.72  0.81  0.83  0.85  0.85  0.82  0.80  0.78
  2.95  2.80  2.42  1.82  1.51  1.68  1.66  1.72  1.42  1.77  2.37  2.75
