 .Wgn file Subbasin: 36 STATION NAME:142n1075e 11/5/2015 12:00:00 AM ArcSWAT 2012.10_0.14
  LATITUDE =  14.21 LONGITUDE = 107.50
  ELEV [m] = 560.00
  RAIN_YRS =  32.00
 29.88 32.49 34.66 34.99 31.69 29.29 28.46 27.63 28.82 30.32 29.28 28.53
 15.62 16.85 18.58 20.42 20.95 20.66 20.31 20.58 20.16 19.13 17.93 16.17
  2.77  2.85  3.20  3.55  3.82  4.10  3.85  3.74  3.65  3.36  3.25  2.94
  2.01  2.04  1.90  1.31  1.10  1.13  1.24  1.10  1.18  1.39  1.87  2.09
   3.6   5.4  26.3  89.6 288.0 344.6 342.6 414.4 372.4 195.2  78.0  17.5
  0.68  1.00  3.93  8.03 16.75 15.78 14.05 16.31 15.66 11.97  7.92  3.41
  7.93  7.95  9.31  5.99  4.73  2.96  3.65  3.37  4.23  5.49  7.33 13.54
  0.04  0.05  0.09  0.26  0.52  0.70  0.69  1.04  0.52  0.40  0.19  0.07
  0.20  0.24  0.34  0.38  0.46  0.48  0.48  0.49  0.50  0.44  0.38  0.29
  1.53  1.84  4.53 12.63 24.91 26.94 28.69 30.13 27.94 21.56 10.13  3.47
  3.35  4.57 24.08 32.10 60.45 37.04 47.05 52.93 53.85 46.97 42.55 24.98
 19.39 20.97 20.81 19.21 19.01 16.82 15.86 14.39 16.74 18.40 17.60 17.69
  0.68  0.61  0.57  0.63  0.78  0.86  0.89  0.91  0.88  0.82  0.76  0.72
  2.70  2.67  2.39  1.94  1.55  1.42  1.33  1.44  1.41  1.82  2.23  2.51
