 .Wgn file Subbasin: 35 STATION NAME:148n1069e 11/5/2015 12:00:00 AM ArcSWAT 2012.10_0.14
  LATITUDE =  14.83 LONGITUDE = 106.88
  ELEV [m] =  87.00
  RAIN_YRS =  32.00
 30.64 33.40 35.51 34.72 31.77 29.60 28.75 28.04 29.39 30.30 29.28 28.64
 15.77 16.93 18.74 20.63 21.28 21.24 20.88 21.03 20.47 19.32 18.02 16.27
  3.38  3.47  3.40  3.97  3.98  4.03  3.66  3.51  3.49  3.10  3.56  3.72
  2.01  2.00  2.04  1.24  0.99  0.99  1.07  0.96  1.02  1.38  1.79  2.06
   3.3   6.9  23.4 105.7 243.3 314.1 314.4 368.6 329.5 162.8  56.3  10.4
  0.73  1.32  3.87 11.11 13.74 16.66 14.69 15.58 14.98  9.08  5.79  1.88
 15.17  9.03 11.19  8.61  4.21  3.74  4.47  3.88  3.79  4.88  7.65 11.81
  0.05  0.06  0.11  0.27  0.48  0.66  0.81  0.78  0.65  0.34  0.19  0.07
  0.14  0.27  0.29  0.39  0.46  0.47  0.49  0.49  0.49  0.45  0.38  0.26
  1.78  2.47  4.88 13.53 24.09 26.22 28.53 29.75 28.56 20.88  9.59  3.22
  5.90  6.19 22.25 66.29 50.06 49.07 50.14 52.28 50.11 38.46 32.22 13.38
 18.94 20.62 21.27 20.59 19.54 17.80 17.38 16.05 17.77 18.44 17.34 17.26
  0.67  0.61  0.58  0.65  0.79  0.86  0.88  0.90  0.88  0.82  0.76  0.72
  2.23  2.14  1.93  1.62  1.44  1.40  1.35  1.37  1.30  1.65  2.09  2.34
