 .Wgn file Subbasin: 33 STATION NAME:139n1059e 11/5/2015 12:00:00 AM ArcSWAT 2012.10_0.14
  LATITUDE =  13.89 LONGITUDE = 105.94
  ELEV [m] =  90.00
  RAIN_YRS =  32.00
 31.90 35.24 37.78 37.43 33.70 31.72 30.88 30.05 30.18 31.35 30.82 30.13
 18.16 20.61 23.12 24.40 24.01 23.62 23.27 23.24 22.92 21.63 19.78 17.98
  2.87  3.10  3.61  4.39  4.15  3.67  3.16  2.84  2.94  3.13  3.25  3.03
  2.47  2.60  2.20  1.47  1.00  0.85  0.77  0.70  0.87  1.42  2.02  2.31
   3.3  11.6  49.2 185.3 379.2 346.3 352.0 381.1 421.5 265.9  84.3  23.2
  0.75  1.96  8.71 14.97 18.72 15.08 13.69 13.25 14.90 11.22  6.25  3.37
 14.90  7.11 15.70  5.52  4.20  6.82  5.44  4.48  3.46  3.42  5.94 13.84
  0.04  0.06  0.13  0.33  0.55  0.61  0.64  0.84  0.95  0.38  0.28  0.13
  0.22  0.29  0.36  0.42  0.48  0.48  0.49  0.49  0.49  0.48  0.42  0.29
  1.69  2.59  7.22 17.00 26.91 27.19 29.69 30.41 29.38 26.06 14.72  6.59
  5.94  7.77 72.64 66.76 54.61 91.93 51.87 50.90 50.07 37.92 30.80 26.91
 19.54 21.04 21.27 19.28 18.32 18.29 18.70 18.04 17.93 18.10 17.26 17.36
  0.62  0.52  0.49  0.59  0.76  0.84  0.87  0.89  0.89  0.84  0.77  0.71
  2.41  2.49  2.33  1.94  1.67  1.72  1.70  1.78  1.49  1.62  1.93  2.13
