 .Wgn file Subbasin: 38 STATION NAME:136n1062e 11/5/2015 12:00:00 AM ArcSWAT 2012.10_0.14
  LATITUDE =  13.58 LONGITUDE = 106.25
  ELEV [m] = 102.00
  RAIN_YRS =  32.00
 31.84 35.19 37.69 37.32 33.72 31.55 30.74 29.87 29.96 31.13 30.53 29.83
 18.72 21.01 23.38 24.43 23.92 23.48 23.16 23.14 22.82 21.58 19.96 18.38
  2.85  3.16  3.50  4.22  4.13  3.71  3.19  2.91  2.97  3.26  3.29  3.16
  2.26  2.36  2.08  1.40  0.99  0.83  0.77  0.70  0.90  1.36  1.91  2.17
   3.1  12.8  47.8 190.5 396.1 398.9 381.9 440.5 467.8 285.2  88.0  21.1
  0.79  2.72  6.99 15.65 18.19 16.48 14.00 15.23 17.70 12.71  6.90  2.97
 14.08 10.36 11.34  5.53  3.71  4.77  4.81  4.59  4.08  3.32  4.90 10.45
  0.03  0.06  0.12  0.33  0.53  0.70  0.61  1.00  0.93  0.41  0.29  0.13
  0.26  0.24  0.35  0.43  0.48  0.48  0.50  0.50  0.49  0.47  0.40  0.29
  1.31  2.56  7.00 17.03 26.63 28.09 29.88 30.72 29.53 25.44 14.16  5.88
  6.00 15.33 47.70 62.81 53.10 72.97 58.69 56.97 66.89 39.09 23.38 18.85
 19.46 20.99 21.42 19.06 18.27 17.89 18.30 17.67 17.42 17.70 16.92 17.02
  0.61  0.51  0.49  0.59  0.77  0.85  0.87  0.90  0.90  0.84  0.77  0.71
  3.07  2.92  2.56  2.03  1.74  1.80  1.80  1.87  1.58  1.73  2.22  2.62
