 .Wgn file Subbasin: 34 STATION NAME:136n1059e 11/5/2015 12:00:00 AM ArcSWAT 2012.10_0.14
  LATITUDE =  13.58 LONGITUDE = 105.94
  ELEV [m] =  88.00
  RAIN_YRS =  32.00
 31.65 34.98 37.41 37.04 33.46 31.41 30.59 29.78 29.78 30.82 30.39 29.74
 18.60 20.81 23.04 24.21 23.88 23.58 23.25 23.22 22.92 21.67 19.98 18.34
  2.83  3.10  3.52  4.24  4.03  3.54  3.02  2.71  2.76  3.01  3.12  2.99
  2.29  2.35  2.03  1.37  0.96  0.79  0.73  0.66  0.84  1.34  1.91  2.19
   3.3  13.7  56.6 202.0 426.2 416.0 418.5 460.8 496.9 309.6  95.3  23.9
  0.68  2.36  9.08 15.75 18.10 14.24 13.83 13.93 17.01 12.54  6.70  3.22
  9.69  7.65 14.76  5.61  3.55  4.20  5.26  4.05  3.71  3.32  4.42 10.21
  0.04  0.06  0.13  0.34  0.68  0.67  0.72  1.13  1.00  0.44  0.28  0.13
  0.16  0.30  0.39  0.44  0.48  0.49  0.50  0.50  0.50  0.48  0.41  0.31
  1.56  2.78  7.97 17.97 27.63 28.19 30.09 30.75 29.63 26.56 15.22  6.47
  3.63 11.33 72.93 61.58 50.86 65.03 63.58 49.07 66.07 37.73 24.97 19.10
 19.60 20.79 20.91 18.50 17.68 17.58 18.13 17.49 17.42 17.74 17.14 17.36
  0.61  0.52  0.50  0.60  0.77  0.85  0.88  0.90  0.90  0.84  0.77  0.71
  2.93  2.78  2.49  2.01  1.76  1.83  1.82  1.90  1.58  1.74  2.21  2.56
