 .Wgn file Subbasin: 32 STATION NAME:142n1056e 11/5/2015 12:00:00 AM ArcSWAT 2012.10_0.14
  LATITUDE =  14.21 LONGITUDE = 105.63
  ELEV [m] = 111.00
  RAIN_YRS =  32.00
 31.79 34.80 37.27 36.92 33.22 31.44 30.57 29.81 29.90 30.97 30.61 30.02
 17.54 20.01 22.66 24.09 23.90 23.59 23.21 23.16 22.86 21.56 19.59 17.61
  2.88  3.07  3.64  4.36  3.99  3.54  2.98  2.70  2.73  3.00  3.21  3.01
  2.57  2.72  2.29  1.44  0.99  0.84  0.75  0.69  0.85  1.49  2.08  2.41
   4.9  16.3  51.7 200.3 375.2 340.0 344.0 383.2 425.7 267.6  88.6  22.1
  1.11  2.78  7.41 14.88 17.19 14.93 11.40 13.49 14.28 11.35  6.37  3.31
 14.00  7.89  9.23  4.69  3.90  6.30  4.07  4.89  3.52  5.13  6.56 16.96
  0.06  0.07  0.14  0.38  0.56  0.59  0.69  0.75  1.00  0.37  0.28  0.13
  0.21  0.28  0.34  0.43  0.47  0.49  0.49  0.49  0.50  0.48  0.41  0.32
  2.25  3.22  7.72 17.91 26.72 27.19 29.47 30.50 29.41 25.66 14.84  6.28
  8.06 14.16 38.79 53.85 60.87 79.06 45.47 62.92 49.30 57.81 36.08 28.94
 19.48 20.66 20.81 19.15 18.64 18.39 18.96 18.26 17.99 18.08 17.29 17.39
  0.63  0.53  0.51  0.61  0.77  0.83  0.87  0.89  0.89  0.84  0.78  0.72
  1.98  2.16  2.13  1.84  1.63  1.71  1.70  1.76  1.43  1.58  1.87  1.97
