 .Wgn file Subbasin: 30 STATION NAME:155n1056e 11/5/2015 12:00:00 AM ArcSWAT 2012.10_0.14
  LATITUDE =  15.46 LONGITUDE = 105.63
  ELEV [m] = 310.00
  RAIN_YRS =  32.00
 29.44 32.69 35.40 35.19 32.14 30.44 29.53 28.63 28.82 28.74 27.65 26.91
 17.25 19.43 22.23 23.73 23.67 23.61 23.21 23.02 22.32 20.82 19.11 17.32
  3.46  3.61  3.80  4.15  3.64  3.30  2.72  2.18  2.18  2.39  3.21  3.53
  2.27  2.82  2.71  1.73  1.17  0.99  0.72  0.62  0.97  1.56  2.03  2.18
   8.1  30.0  67.9 248.0 564.5 626.9 634.5 745.7 536.3 226.1  57.5   9.9
  1.50  5.56  8.46 16.97 24.21 20.89 16.11 21.01 19.28 12.65  5.81  1.66
  8.86 12.28  9.84  4.59  3.84  2.47  2.53  2.73  2.95  3.83  8.84  9.85
  0.07  0.08  0.17  0.40  0.56  0.51  0.73  1.00  0.79  0.33  0.18  0.08
  0.20  0.30  0.37  0.43  0.48  0.48  0.49  0.50  0.49  0.45  0.36  0.27
  2.38  4.19  9.50 18.88 26.59 27.22 29.84 30.75 28.78 21.84  9.81  3.63
  7.58 37.75 48.89 61.01 95.44 55.68 64.54 62.79 60.45 40.16 37.68  9.57
 18.35 19.11 19.10 17.86 18.67 18.85 19.45 18.25 17.63 18.17 16.52 16.16
  0.67  0.57  0.53  0.63  0.77  0.83  0.87  0.90  0.91  0.86  0.81  0.76
  3.18  3.03  2.77  2.36  2.19  2.35  2.34  2.22  1.70  2.35  3.33  3.78
