 .Wgn file Subbasin: 31 STATION NAME:151n1059e 11/5/2015 12:00:00 AM ArcSWAT 2012.10_0.14
  LATITUDE =  15.14 LONGITUDE = 105.94
  ELEV [m] = 279.00
  RAIN_YRS =  32.00
 28.76 31.83 34.36 33.47 29.94 28.06 27.18 26.52 27.03 27.45 26.77 26.30
 15.92 17.77 20.32 21.88 22.17 22.22 21.87 21.83 21.21 19.72 17.94 16.09
  3.24  3.39  3.80  4.51  3.72  3.03  2.32  1.91  2.06  2.25  2.88  3.16
  2.26  2.61  2.41  1.42  0.97  0.83  0.82  0.72  1.01  1.57  2.06  2.22
  14.3  44.1 109.8 383.5 889.41122.61201.61305.5 904.5 391.6 112.0  23.3
  2.20  6.37  9.17 20.35 28.97 25.64 21.71 25.24 23.63 15.70  7.57  2.30
 12.14  8.94  5.50  3.84  3.50  1.35  1.19  1.88  2.17  2.84  5.50  5.24
  0.11  0.14  0.24  0.50  0.54  0.69  1.00  1.00  0.86  0.37  0.29  0.15
  0.29  0.31  0.41  0.44  0.49  0.50  0.50  0.50  0.50  0.48  0.41  0.29
  4.59  5.88 13.13 22.78 29.19 29.19 30.84 30.91 29.78 25.72 15.09  6.84
 16.28 37.51 41.79 73.88107.33 68.85 65.83 80.20 68.08 47.84 38.78  9.39
 17.91 18.46 17.89 16.75 17.07 16.66 16.80 15.29 15.90 17.11 16.05 16.02
  0.70  0.61  0.57  0.69  0.84  0.89  0.92  0.94  0.94  0.90  0.84  0.79
  2.49  2.50  2.36  2.05  1.91  1.96  1.93  1.88  1.55  1.96  2.55  2.85
