 .Wgn file Subbasin: 44 STATION NAME:133n1050e 11/5/2015 12:00:00 AM ArcSWAT 2012.10_0.14
  LATITUDE =  13.27 LONGITUDE = 105.00
  ELEV [m] =  96.00
  RAIN_YRS =  32.00
 32.08 34.96 37.02 36.72 33.98 32.29 31.20 30.42 30.04 30.35 30.37 29.95
 18.97 20.95 22.99 24.31 24.19 23.82 23.48 23.42 23.22 22.04 20.44 18.80
  2.75  2.77  3.38  3.95  3.86  3.51  2.69  2.59  2.39  2.70  2.94  2.97
  2.18  2.15  1.94  1.29  0.94  0.79  0.72  0.68  0.78  1.28  1.86  2.16
   4.6  14.6  64.4 201.2 355.6 316.9 293.3 335.2 413.1 315.3 107.9  21.2
  0.91  2.16  7.07 14.57 16.59 12.43  8.31 12.12 14.22 12.47  7.26  2.61
 11.13  6.72  8.50  5.17  4.53  4.14  2.40  4.74  4.69  3.36  4.53  6.71
  0.04  0.08  0.18  0.43  0.60  0.60  0.71  0.98  0.88  0.40  0.27  0.12
  0.25  0.31  0.36  0.41  0.48  0.49  0.49  0.49  0.50  0.47  0.42  0.29
  1.75  3.66  9.22 18.72 26.59 27.28 29.25 29.72 29.47 26.53 15.56  5.75
  6.34  8.39 35.87 56.95 69.92 43.19 27.42 51.61 55.19 35.08 24.22 11.97
 19.65 20.01 19.89 17.90 18.42 18.68 19.68 18.82 18.08 17.85 17.36 17.46
  0.60  0.53  0.53  0.63  0.77  0.83  0.86  0.88  0.90  0.86  0.78  0.70
  2.74  2.52  2.22  1.87  1.75  1.79  1.82  1.88  1.53  1.70  2.25  2.65
