 .Sol file Watershed HRU:326 Subbasin:41 HRU:6 Luse:RNGE Soil: Ag16-2a-4264 Slope: 0-9999 11/5/2015 12:00:00 AM ArcSWAT 2012.10_0.14
 Soil Name: Ag16-2a-4264
 Soil Hydrologic Group: D
 Maximum rooting depth(m) : 1000.00
 Porosity fraction from which anions are excluded: 0.500
 Crack volume potential of soil: 0.500
 Texture 1                : LOAM
 Depth                [mm]:      300.00     1000.00
 Bulk Density Moist [g/cc]:        1.40        1.40
 Ave. AW Incl. Rock Frag  :        0.18        0.18
 Ksat. (est.)      [mm/hr]:        5.91        4.68
 Organic Carbon [weight %]:        1.80        0.40
 Clay           [weight %]:       24.00       37.00
 Silt           [weight %]:       31.00       27.00
 Sand           [weight %]:       45.00       36.00
 Rock Fragments   [vol. %]:        0.00        0.00
 Soil Albedo (Moist)      :        0.02        0.23
 Erosion K                :        0.28        0.28
 Salinity (EC, Form 5)    :        0.00        0.00
 Soil pH                  :        0.00        0.00
 Soil CACO3               :        0.00        0.00
                              
