 .Wgn file Subbasin: 46 STATION NAME:114n1053e 11/5/2015 12:00:00 AM ArcSWAT 2012.10_0.14
  LATITUDE =  11.40 LONGITUDE = 105.31
  ELEV [m] =   7.00
  RAIN_YRS =  32.00
 33.49 36.02 37.63 37.05 34.50 32.03 31.00 30.47 30.46 29.96 30.09 30.71
 21.48 22.97 24.88 26.03 25.48 24.49 24.02 23.93 24.06 23.48 22.08 21.08
  2.73  2.52  2.92  3.34  3.32  3.08  2.54  2.39  2.20  2.23  2.62  3.12
  2.07  1.85  1.53  1.18  1.06  0.89  0.70  0.67  0.65  1.03  1.51  1.83
  14.5  21.8  62.7 177.9 262.9 265.2 263.3 282.7 382.7 375.1 188.4  53.0
  1.73  4.81  6.50 13.01 10.87 10.07  7.12  8.00 12.46 14.34  9.62  4.47
  5.32 15.72  7.74  5.97  3.45  4.73  3.02  3.12  4.60  4.37  4.17  4.61
  0.10  0.10  0.19  0.41  0.56  0.76  0.67  0.86  0.86  0.56  0.35  0.15
  0.29  0.32  0.34  0.43  0.46  0.49  0.49  0.49  0.50  0.49  0.45  0.39
  4.66  4.25  9.28 18.69 25.44 27.44 29.09 29.69 29.56 29.03 20.19  9.28
  6.15 36.76 36.59 58.20 35.73 45.51 35.61 36.27 58.55 55.58 42.28 17.77
 19.08 20.21 19.22 16.54 18.66 19.34 20.00 19.78 19.56 18.10 18.05 17.69
  0.55  0.50  0.50  0.58  0.71  0.80  0.84  0.85  0.87  0.87  0.80  0.66
  2.48  2.39  2.34  2.09  2.09  2.19  2.18  2.25  1.77  1.65  2.41  3.13
