 .Wgn file Subbasin: 40 STATION NAME:130n1062e 11/5/2015 12:00:00 AM ArcSWAT 2012.10_0.14
  LATITUDE =  12.96 LONGITUDE = 106.25
  ELEV [m] =  63.00
  RAIN_YRS =  32.00
 32.53 35.81 38.19 37.85 34.19 31.80 31.08 30.35 30.24 31.23 30.79 30.17
 20.22 21.70 23.36 24.47 24.13 23.57 23.17 23.18 22.99 22.07 21.02 19.93
  2.91  3.20  3.55  3.99  3.84  3.56  3.06  2.92  2.85  3.12  3.23  3.17
  2.00  1.97  1.85  1.25  0.99  0.79  0.69  0.63  0.75  1.13  1.59  1.95
   2.9   9.6  39.1 158.8 326.4 361.1 352.0 418.0 438.6 298.9  92.1  16.8
  0.66  1.88  5.17 13.70 15.42 16.55 12.37 15.12 15.92 15.27  8.43  2.54
  9.95  8.10 11.21  5.40  4.97  6.02  4.85  4.71  3.91  5.03  6.93  9.54
  0.02  0.05  0.12  0.30  0.55  0.66  0.75  0.94  0.81  0.33  0.23  0.08
  0.32  0.28  0.36  0.44  0.48  0.49  0.49  0.50  0.50  0.47  0.39  0.30
  1.06  2.16  6.84 16.50 26.63 27.81 30.00 30.44 29.50 24.97 12.72  4.06
  3.85  7.74 37.54 49.38 74.54 81.08 48.78 60.25 52.48 61.55 39.07 15.76
 19.68 21.24 21.61 19.28 18.51 18.01 18.68 18.21 17.93 17.98 17.31 17.43
  0.56  0.49  0.48  0.58  0.75  0.84  0.87  0.89  0.89  0.83  0.74  0.67
  3.85  3.19  2.61  2.04  1.91  1.98  1.98  2.02  1.67  1.90  2.84  3.69
