 .Wgn file Subbasin: 47 STATION NAME:111n1050e 11/5/2015 12:00:00 AM ArcSWAT 2012.10_0.14
  LATITUDE =  11.08 LONGITUDE = 105.00
  ELEV [m] =   7.00
  RAIN_YRS =  32.00
 33.30 36.11 37.93 36.39 33.93 31.40 30.38 30.02 30.12 29.68 29.96 30.67
 20.87 21.97 24.00 25.43 25.13 24.16 23.72 23.78 23.95 23.37 22.00 20.97
  2.74  2.66  3.17  3.06  3.04  2.79  2.17  2.06  2.01  2.00  2.58  3.10
  2.06  1.94  1.59  1.12  1.00  0.87  0.69  0.63  0.65  0.99  1.50  1.79
  14.3  19.2  57.0 176.0 266.4 283.8 278.6 290.4 376.8 358.8 182.8  48.2
  1.87  4.22  5.66 12.90  9.65  9.67  6.54  7.74 11.04 12.51  9.80  4.29
  7.12 14.00  5.73  7.52  3.03  4.47  1.10  3.38  4.37  3.98  4.65  6.36
  0.10  0.09  0.16  0.41  0.55  0.83  0.85  0.84  1.07  0.55  0.34  0.15
  0.28  0.31  0.39  0.42  0.47  0.47  0.49  0.49  0.49  0.49  0.45  0.38
  4.38  3.78  8.97 18.69 25.53 27.38 29.31 29.63 29.53 28.97 20.00  9.41
  9.97 27.86 21.65 69.07 37.40 43.29 14.34 36.18 47.85 48.49 45.30 23.45
 19.03 19.82 18.48 16.20 19.67 20.03 20.33 20.02 19.88 18.22 18.11 17.77
  0.58  0.54  0.54  0.61  0.73  0.83  0.86  0.87  0.87  0.88  0.81  0.67
  2.17  2.07  2.00  1.82  1.90  1.95  1.91  2.01  1.60  1.45  2.14  2.75
