 .Sol file Watershed HRU:358 Subbasin:45 HRU:6 Luse:RNGE Soil: Af60-1-2a-4260 Slope: 0-9999 11/5/2015 12:00:00 AM ArcSWAT 2012.10_0.14
 Soil Name: Af60-1-2a-4260
 Soil Hydrologic Group: C
 Maximum rooting depth(m) : 1000.00
 Porosity fraction from which anions are excluded: 0.500
 Crack volume potential of soil: 0.500
 Texture 1                : SANDY_LOAM
 Depth                [mm]:      300.00     1000.00
 Bulk Density Moist [g/cc]:        1.40        1.40
 Ave. AW Incl. Rock Frag  :        0.16        0.16
 Ksat. (est.)      [mm/hr]:       16.93        9.58
 Organic Carbon [weight %]:        1.50        0.50
 Clay           [weight %]:       18.00       28.00
 Silt           [weight %]:       19.00       18.00
 Sand           [weight %]:       63.00       54.00
 Rock Fragments   [vol. %]:        0.00        0.00
 Soil Albedo (Moist)      :        0.03        0.19
 Erosion K                :        0.25        0.25
 Salinity (EC, Form 5)    :        0.00        0.00
 Soil pH                  :        0.00        0.00
 Soil CACO3               :        0.00        0.00
                              
