 .Sol file Watershed HRU:329 Subbasin:42 HRU:1 Luse:IRRC Soil: Vp64-3a-4588 Slope: 0-9999 11/5/2015 12:00:00 AM ArcSWAT 2012.10_0.14
 Soil Name: Vp64-3a-4588
 Soil Hydrologic Group: C
 Maximum rooting depth(m) :  530.00
 Porosity fraction from which anions are excluded: 0.500
 Crack volume potential of soil: 0.500
 Texture 1                : CLAY
 Depth                [mm]:      300.00     1000.00
 Bulk Density Moist [g/cc]:        1.30        1.40
 Ave. AW Incl. Rock Frag  :        0.11        0.11
 Ksat. (est.)      [mm/hr]:        8.64        5.33
 Organic Carbon [weight %]:        1.00        0.50
 Clay           [weight %]:       44.00       49.00
 Silt           [weight %]:       27.00       24.00
 Sand           [weight %]:       29.00       26.00
 Rock Fragments   [vol. %]:        0.00        0.00
 Soil Albedo (Moist)      :        0.07        0.19
 Erosion K                :        0.21        0.21
 Salinity (EC, Form 5)    :        0.00        0.00
 Soil pH                  :        0.00        0.00
 Soil CACO3               :        0.00        0.00
                              
