 .Sol file Watershed HRU:365 Subbasin:46 HRU:5 Luse:FRSE Soil: Ge56-3a-4325 Slope: 0-9999 11/5/2015 12:00:00 AM ArcSWAT 2012.10_0.14
 Soil Name: Ge56-3a-4325
 Soil Hydrologic Group: C
 Maximum rooting depth(m) : 1000.00
 Porosity fraction from which anions are excluded: 0.500
 Crack volume potential of soil: 0.500
 Texture 1                : CLAY_LOAM
 Depth                [mm]:      300.00     1000.00
 Bulk Density Moist [g/cc]:        1.20        1.50
 Ave. AW Incl. Rock Frag  :        0.00        0.00
 Ksat. (est.)      [mm/hr]:       12.34        2.43
 Organic Carbon [weight %]:        2.30        1.00
 Clay           [weight %]:       35.00       39.00
 Silt           [weight %]:       37.00       35.00
 Sand           [weight %]:       27.00       26.00
 Rock Fragments   [vol. %]:        0.00        0.00
 Soil Albedo (Moist)      :        0.01        0.07
 Erosion K                :        0.26        0.26
 Salinity (EC, Form 5)    :        0.00        0.00
 Soil pH                  :        0.00        0.00
 Soil CACO3               :        0.00        0.00
                              
