 .Wgn file Subbasin: 41 STATION NAME:120n1066e 11/5/2015 12:00:00 AM ArcSWAT 2012.10_0.14
  LATITUDE =  12.02 LONGITUDE = 106.56
  ELEV [m] =  96.00
  RAIN_YRS =  32.00
 33.74 36.49 38.79 38.83 35.16 31.99 30.87 30.13 30.49 31.64 31.85 31.59
 19.62 20.04 21.67 23.57 23.93 23.38 23.00 22.96 22.95 22.28 21.39 20.41
  2.80  2.82  3.38  4.07  4.31  3.80  3.28  3.14  3.10  3.28  3.27  3.11
  2.10  2.23  2.18  1.40  0.95  0.77  0.65  0.63  0.69  1.07  1.34  1.89
   7.2  13.6  42.0 123.9 273.9 358.9 358.1 412.9 427.0 366.1 134.7  32.5
  1.13  3.10  4.88 11.54 12.30 14.79 11.03 13.08 12.58 15.90  7.89  3.48
  9.16 14.19  7.26  7.57  4.51  5.48  4.89  5.02  3.66  4.88  3.90  7.18
  0.07  0.06  0.14  0.28  0.57  0.78  0.96  1.00  0.86  0.49  0.28  0.12
  0.26  0.34  0.33  0.42  0.46  0.49  0.49  0.50  0.50  0.48  0.42  0.35
  2.88  2.84  7.31 14.78 25.75 28.47 30.16 30.66 29.78 27.78 16.34  6.56
  6.77 21.19 23.79 60.00 48.49 68.63 59.84 58.23 45.98 72.32 27.61 20.55
 18.91 20.52 19.88 17.41 18.17 19.36 19.69 19.11 18.91 18.31 17.89 17.69
  0.57  0.52  0.51  0.58  0.74  0.84  0.87  0.89  0.89  0.85  0.75  0.65
  2.82  2.43  2.15  1.93  1.93  1.93  1.92  1.93  1.64  1.65  2.49  3.32
