 .Wgn file Subbasin: 43 STATION NAME:133n1038e 11/5/2015 12:00:00 AM ArcSWAT 2012.10_0.14
  LATITUDE =  13.27 LONGITUDE = 103.75
  ELEV [m] =   7.00
  RAIN_YRS =  32.00
 32.26 34.79 36.91 36.32 33.65 32.00 30.81 30.09 29.74 29.66 29.82 30.11
 20.00 21.87 23.63 24.64 24.53 24.02 23.61 23.63 23.78 22.91 21.28 19.73
  2.85  2.99  3.68  4.24  3.68  3.20  2.44  2.26  2.09  2.52  3.36  3.39
  2.30  2.22  1.88  1.25  0.91  0.78  0.68  0.64  0.65  1.35  2.01  2.32
  11.8  31.9  99.7 276.7 431.5 361.2 396.8 428.8 506.9 432.5 195.3  41.0
  1.72  3.44  7.14 14.92 15.03 10.86 10.35 12.39 13.98 14.18  9.64  3.56
  8.16  4.25  3.48  3.57  2.85  2.64  2.78  4.65  3.80  2.83  2.37  4.12
  0.09  0.13  0.23  0.48  0.50  0.59  0.85  0.86  0.86  0.46  0.31  0.17
  0.22  0.32  0.39  0.45  0.47  0.49  0.49  0.50  0.49  0.48  0.44  0.38
  3.66  5.88 12.09 21.06 26.78 27.25 29.72 30.56 29.56 27.84 19.22  9.41
  8.35  9.52 21.56 51.12 54.82 37.79 40.60 63.83 52.17 45.50 28.76 10.28
 18.31 19.33 19.17 17.10 18.52 18.89 19.81 19.09 18.06 17.45 15.65 15.62
  0.59  0.54  0.56  0.66  0.78  0.83  0.86  0.88  0.90  0.87  0.79  0.68
  2.09  2.11  1.96  1.73  1.71  1.89  1.88  1.95  1.53  1.56  1.86  2.07
