 .Wgn file Subbasin: 42 STATION NAME:120n1056e 11/5/2015 12:00:00 AM ArcSWAT 2012.10_0.14
  LATITUDE =  12.02 LONGITUDE = 105.63
  ELEV [m] =  80.00
  RAIN_YRS =  32.00
 33.16 35.78 37.63 37.12 34.41 32.16 31.23 30.64 30.34 30.41 30.64 30.70
 20.20 21.99 24.03 25.17 24.69 23.90 23.54 23.51 23.50 22.64 21.15 20.01
  2.61  2.56  3.06  3.49  3.56  3.27  2.58  2.48  2.30  2.56  2.90  3.12
  2.13  2.15  1.80  1.27  1.04  0.83  0.65  0.63  0.65  1.13  1.53  1.89
  11.8  20.2  60.9 193.3 344.2 335.0 326.4 372.0 441.9 391.2 147.7  35.2
  1.83  4.08  6.33 14.18 14.71 13.35  8.53 11.15 11.82 15.81  8.13  3.33
  7.74 12.99  6.74  5.02  3.84  6.62  3.04  3.59  3.41  4.27  3.65  5.48
  0.07  0.08  0.13  0.38  0.54  0.69  0.81  0.78  0.82  0.54  0.32  0.14
  0.29  0.30  0.38  0.42  0.47  0.49  0.49  0.50  0.50  0.49  0.43  0.35
  3.09  3.56  8.72 18.09 26.75 28.16 29.66 30.28 29.66 28.53 17.88  7.22
  9.19 29.01 27.68 51.54 49.46 66.62 36.68 39.34 41.72 55.11 31.78 15.38
 19.24 20.45 19.96 17.46 18.39 18.54 19.52 19.24 18.61 17.80 17.74 17.60
  0.57  0.51  0.50  0.59  0.74  0.83  0.86  0.87  0.89  0.87  0.79  0.68
  2.97  2.66  2.45  2.13  2.06  2.10  2.13  2.17  1.73  1.77  2.60  3.40
