 .Wgn file Subbasin: 45 STATION NAME:120n1047e 11/5/2015 12:00:00 AM ArcSWAT 2012.10_0.14
  LATITUDE =  12.02 LONGITUDE = 104.69
  ELEV [m] =  27.00
  RAIN_YRS =  32.00
 31.89 35.01 36.90 36.31 33.86 31.55 30.27 29.72 29.50 28.81 28.51 28.91
 19.78 21.83 23.84 24.76 24.31 23.57 23.11 23.08 23.20 22.48 21.02 19.65
  2.78  2.72  3.20  3.55  3.45  3.12  2.14  1.94  1.80  1.96  2.54  3.01
  2.21  2.18  1.63  1.09  0.91  0.82  0.65  0.64  0.63  1.06  1.55  1.91
  12.6  15.8  68.9 174.7 258.3 258.7 253.6 285.0 373.3 358.8 150.8  39.9
  1.81  3.06  7.65 11.75 12.42 10.11  6.22  8.22 10.60 16.20  9.38  4.26
  6.02 14.37  6.34  4.14  4.70  5.07  1.40  5.27  4.16  4.75  5.18  8.58
  0.08  0.09  0.17  0.39  0.55  0.77  0.76  0.83  0.85  0.38  0.33  0.14
  0.27  0.32  0.34  0.42  0.46  0.48  0.49  0.49  0.50  0.49  0.45  0.35
  3.31  3.66  9.09 17.78 24.38 27.09 29.41 30.06 29.59 28.19 18.84  7.91
  6.05 24.18 27.18 37.59 46.37 47.37 15.19 42.11 50.19 60.87 40.75 26.87
 19.69 20.44 19.76 17.32 19.01 19.22 19.81 19.36 18.82 17.97 17.69 17.73
  0.59  0.52  0.52  0.62  0.75  0.84  0.88  0.90  0.91  0.90  0.84  0.72
  1.96  1.88  1.86  1.67  1.66  1.57  1.54  1.53  1.28  1.34  1.82  2.22
